data/nesta_case73_ieee_rts__api.m
%%%%%%%%%%%%%%%%%%%%%%%%%%%%%%%%%%%%%%%%%%%%%%%%%%%%%%%%%%%%%%%%%%%%%%%%%%%
%%%%                                                                  %%%%%
%%%%      NICTA Energy System Test Case Archive (NESTA) - v0.6.0      %%%%%
%%%%            Optimal Power Flow - Active Power Increase            %%%%%
%%%%                       02 - January - 2016                        %%%%%
%%%%                                                                  %%%%%
%%%%%%%%%%%%%%%%%%%%%%%%%%%%%%%%%%%%%%%%%%%%%%%%%%%%%%%%%%%%%%%%%%%%%%%%%%%
function mpc = nesta_case73_ieee_rts__api
mpc.version = '2';
mpc.baseMVA = 100.0;

%% area data
%	area	refbus
mpc.areas = [
	1	 101;
	2	 201;
	3	 301;
];

%% bus data
%	bus_i	type	Pd	Qd	Gs	Bs	area	Vm	Va	baseKV	zone	Vmax	Vmin
mpc.bus = [
	101	 2	 207.49	 22.00	 0.0	 0.0	 1	    1.02944	  -15.36810	 138.0	 1	    1.05000	    0.95000;
	102	 2	 186.35	 20.00	 0.0	 0.0	 1	    1.05000	  -15.06839	 138.0	 1	    1.05000	    0.95000;
	103	 1	 345.81	 37.00	 0.0	 0.0	 1	    0.95036	  -22.94014	 138.0	 1	    1.05000	    0.95000;
	104	 1	 142.17	 15.00	 0.0	 0.0	 1	    0.96891	  -23.80565	 138.0	 1	    1.05000	    0.95000;
	105	 1	 136.40	 14.00	 0.0	 0.0	 1	    0.97759	  -23.37891	 138.0	 1	    1.05000	    0.95000;
	106	 1	 261.28	 28.00	 0.0	 -100.0	 1	    0.95000	  -29.85987	 138.0	 1	    1.05000	    0.95000;
	107	 2	 240.15	 25.00	 0.0	 0.0	 1	    1.02300	  -29.11439	 138.0	 1	    1.05000	    0.95000;
	108	 1	 328.52	 35.00	 0.0	 0.0	 1	    0.95000	  -33.75380	 138.0	 1	    1.05000	    0.95000;
	109	 1	 336.20	 36.00	 0.0	 0.0	 1	    0.96528	  -22.70065	 138.0	 1	    1.05000	    0.95000;
	110	 1	 374.63	 40.00	 0.0	 0.0	 1	    0.97702	  -25.05035	 138.0	 1	    1.05000	    0.95000;
	111	 1	 0.00	 0.00	 0.0	 0.0	 1	    0.98217	  -12.12247	 230.0	 1	    1.05000	    0.95000;
	112	 1	 0.00	 0.00	 0.0	 0.0	 1	    0.97090	   -8.79490	 230.0	 1	    1.05000	    0.95000;
	113	 3	 509.11	 54.00	 0.0	 0.0	 1	    1.04101	   -0.00000	 230.0	 1	    1.05000	    0.95000;
	114	 2	 372.71	 39.00	 0.0	 0.0	 1	    1.01928	  -12.21941	 230.0	 1	    1.05000	    0.95000;
	115	 2	 609.01	 64.00	 0.0	 0.0	 1	    1.05000	   -0.64842	 230.0	 1	    1.05000	    0.95000;
	116	 2	 192.12	 20.00	 0.0	 0.0	 1	    1.05000	   -0.09626	 230.0	 1	    1.05000	    0.95000;
	117	 1	 0.00	 0.00	 0.0	 0.0	 1	    1.04944	    1.51135	 230.0	 1	    1.05000	    0.95000;
	118	 2	 639.75	 68.00	 0.0	 0.0	 1	    1.04844	    1.42374	 230.0	 1	    1.05000	    0.95000;
	119	 1	 347.73	 37.00	 0.0	 0.0	 1	    1.03727	   -1.17038	 230.0	 1	    1.05000	    0.95000;
	120	 1	 245.91	 26.00	 0.0	 0.0	 1	    1.04091	    1.54275	 230.0	 1	    1.05000	    0.95000;
	121	 2	 0.00	 0.00	 0.0	 0.0	 1	    1.05000	    3.46118	 230.0	 1	    1.05000	    0.95000;
	122	 2	 0.00	 0.00	 0.0	 0.0	 1	    1.05000	    8.81788	 230.0	 1	    1.05000	    0.95000;
	123	 2	 0.00	 0.00	 0.0	 0.0	 1	    1.05000	    4.42661	 230.0	 1	    1.05000	    0.95000;
	124	 1	 0.00	 0.00	 0.0	 0.0	 1	    0.98082	   -8.38369	 230.0	 1	    1.05000	    0.95000;
	201	 2	 207.49	 22.00	 0.0	 0.0	 2	    1.02944	  -27.21859	 138.0	 2	    1.05000	    0.95000;
	202	 2	 186.35	 20.00	 0.0	 0.0	 2	    1.05000	  -26.91888	 138.0	 2	    1.05000	    0.95000;
	203	 1	 345.81	 37.00	 0.0	 0.0	 2	    0.96919	  -31.82104	 138.0	 2	    1.05000	    0.95000;
	204	 1	 142.17	 15.00	 0.0	 0.0	 2	    0.97125	  -35.30858	 138.0	 2	    1.05000	    0.95000;
	205	 1	 136.40	 14.00	 0.0	 0.0	 2	    0.97759	  -35.22940	 138.0	 2	    1.05000	    0.95000;
	206	 1	 261.28	 28.00	 0.0	 -100.0	 2	    0.95000	  -41.71030	 138.0	 2	    1.05000	    0.95000;
	207	 2	 240.15	 25.00	 0.0	 0.0	 2	    1.02168	  -40.44257	 138.0	 2	    1.05000	    0.95000;
	208	 1	 328.52	 35.00	 0.0	 0.0	 2	    0.95000	  -45.16414	 138.0	 2	    1.05000	    0.95000;
	209	 1	 336.20	 36.00	 0.0	 0.0	 2	    0.96873	  -33.92357	 138.0	 2	    1.05000	    0.95000;
	210	 1	 374.63	 40.00	 0.0	 0.0	 2	    0.97702	  -36.90083	 138.0	 2	    1.05000	    0.95000;
	211	 1	 0.00	 0.00	 0.0	 0.0	 2	    0.98147	  -23.77064	 230.0	 2	    1.05000	    0.95000;
	212	 1	 0.00	 0.00	 0.0	 0.0	 2	    0.97071	  -21.06307	 230.0	 2	    1.05000	    0.95000;
	213	 2	 509.11	 54.00	 0.0	 0.0	 2	    1.04147	  -12.87516	 230.0	 2	    1.05000	    0.95000;
	214	 2	 372.71	 39.00	 0.0	 0.0	 2	    1.01095	  -22.86136	 230.0	 2	    1.05000	    0.95000;
	215	 2	 609.01	 64.00	 0.0	 0.0	 2	    1.05000	   -8.07469	 230.0	 2	    1.05000	    0.95000;
	216	 2	 192.12	 20.00	 0.0	 0.0	 2	    1.03715	   -9.13988	 230.0	 2	    1.05000	    0.95000;
	217	 1	 0.00	 0.00	 0.0	 0.0	 2	    1.04019	   -6.02711	 230.0	 2	    1.05000	    0.95000;
	218	 2	 639.75	 68.00	 0.0	 0.0	 2	    1.04149	   -7.39981	 230.0	 2	    1.05000	    0.95000;
	219	 1	 347.73	 37.00	 0.0	 0.0	 2	    1.02212	  -11.64921	 230.0	 2	    1.05000	    0.95000;
	220	 1	 245.91	 26.00	 0.0	 0.0	 2	    1.02406	  -10.08870	 230.0	 2	    1.05000	    0.95000;
	221	 2	 0.00	 0.00	 0.0	 0.0	 2	    1.04679	   -6.38160	 230.0	 2	    1.05000	    0.95000;
	222	 2	 0.00	 0.00	 0.0	 0.0	 2	    1.05000	    2.04827	 230.0	 2	    1.05000	    0.95000;
	223	 2	 0.00	 0.00	 0.0	 0.0	 2	    1.03129	   -7.77974	 230.0	 2	    1.05000	    0.95000;
	224	 1	 0.00	 0.00	 0.0	 0.0	 2	    0.98460	  -16.45552	 230.0	 2	    1.05000	    0.95000;
	301	 2	 207.49	 22.00	 0.0	 0.0	 3	    1.05000	   -5.64736	 138.0	 3	    1.05000	    0.95000;
	302	 2	 186.35	 20.00	 0.0	 0.0	 3	    1.05000	   -4.52110	 138.0	 3	    1.05000	    0.95000;
	303	 1	 345.81	 37.00	 0.0	 0.0	 3	    0.95000	  -10.58534	 138.0	 3	    1.05000	    0.95000;
	304	 1	 142.17	 15.00	 0.0	 0.0	 3	    0.96709	  -13.06894	 138.0	 3	    1.05000	    0.95000;
	305	 1	 136.40	 14.00	 0.0	 0.0	 3	    0.98892	  -13.14520	 138.0	 3	    1.05000	    0.95000;
	306	 1	 261.28	 28.00	 0.0	 -100.0	 3	    0.95000	  -19.31257	 138.0	 3	    1.05000	    0.95000;
	307	 2	 240.15	 25.00	 0.0	 0.0	 3	    1.05000	  -30.21573	 138.0	 3	    1.05000	    0.95000;
	308	 1	 328.52	 35.00	 0.0	 0.0	 3	    0.95536	  -30.02815	 138.0	 3	    1.05000	    0.95000;
	309	 1	 336.20	 36.00	 0.0	 0.0	 3	    0.96172	  -11.77594	 138.0	 3	    1.05000	    0.95000;
	310	 1	 374.63	 40.00	 0.0	 0.0	 3	    0.97702	  -14.50305	 138.0	 3	    1.05000	    0.95000;
	311	 1	 0.00	 0.00	 0.0	 0.0	 3	    0.98728	    0.78707	 230.0	 3	    1.05000	    0.95000;
	312	 1	 0.00	 0.00	 0.0	 0.0	 3	    0.96621	    2.96042	 230.0	 3	    1.05000	    0.95000;
	313	 2	 509.11	 54.00	 0.0	 0.0	 3	    1.04079	   13.62711	 230.0	 3	    1.05000	    0.95000;
	314	 2	 372.71	 39.00	 0.0	 0.0	 3	    1.05000	    1.91471	 230.0	 3	    1.05000	    0.95000;
	315	 2	 609.01	 64.00	 0.0	 0.0	 3	    1.05000	   14.83720	 230.0	 3	    1.05000	    0.95000;
	316	 2	 192.12	 20.00	 0.0	 0.0	 3	    1.05000	   15.74872	 230.0	 3	    1.05000	    0.95000;
	317	 1	 0.00	 0.00	 0.0	 0.0	 3	    1.04536	   14.98462	 230.0	 3	    1.05000	    0.95000;
	318	 2	 639.75	 68.00	 0.0	 0.0	 3	    1.04425	   12.77856	 230.0	 3	    1.05000	    0.95000;
	319	 1	 347.73	 37.00	 0.0	 0.0	 3	    1.03694	   12.19787	 230.0	 3	    1.05000	    0.95000;
	320	 1	 245.91	 26.00	 0.0	 0.0	 3	    1.04099	   12.74247	 230.0	 3	    1.05000	    0.95000;
	321	 2	 0.00	 0.00	 0.0	 0.0	 3	    1.05000	   15.31041	 230.0	 3	    1.05000	    0.95000;
	322	 2	 0.00	 0.00	 0.0	 0.0	 3	    1.05000	   28.59632	 230.0	 3	    1.05000	    0.95000;
	323	 2	 0.00	 0.00	 0.0	 0.0	 3	    1.04858	   14.44833	 230.0	 3	    1.05000	    0.95000;
	324	 1	 0.00	 0.00	 0.0	 0.0	 3	    0.97411	    6.01451	 230.0	 3	    1.05000	    0.95000;
	325	 1	 0.00	 0.00	 0.0	 0.0	 3	    1.05000	   13.52232	 230.0	 3	    1.05000	    0.95000;
];

%% generator data
%	bus	Pg	Qg	Qmax	Qmin	Vg	mBase	status	Pmax	Pmin	Pc1	Pc2	Qc1min	Qc1max	Qc2min	Qc2max	ramp_agc	ramp_10	ramp_30	ramp_q	apf
mpc.gen = [
	101	 8.0	 -7.252	 51.0	 -51.0	 1.02944	 100.0	 1	 101	 8.0	 0.0	 0.0	 0.0	 0.0	 0.0	 0.0	 0.0	 0.0	 0.0	 0.0	 0.0; % PEL
	101	 207.0	 -28.474	 104.0	 -104.0	 1.02944	 100.0	 1	 207	 8.0	 0.0	 0.0	 0.0	 0.0	 0.0	 0.0	 0.0	 0.0	 0.0	 0.0	 0.0; % NG
	101	 7.6	 -26.465	 100.0	 -100.0	 1.02944	 100.0	 1	 200	 7.6	 0.0	 0.0	 0.0	 0.0	 0.0	 0.0	 0.0	 0.0	 0.0	 0.0	 0.0; % NG
	101	 155.618	 -25.973	 99.0	 -99.0	 1.02944	 100.0	 1	 197	 7.6	 0.0	 0.0	 0.0	 0.0	 0.0	 0.0	 0.0	 0.0	 0.0	 0.0	 0.0; % NG
	102	 8.0	 40.533	 107.0	 -107.0	 1.05	 100.0	 1	 213	 8.0	 0.0	 0.0	 0.0	 0.0	 0.0	 0.0	 0.0	 0.0	 0.0	 0.0	 0.0; % PEL
	102	 205.0	 37.911	 103.0	 -103.0	 1.05	 100.0	 1	 205	 8.0	 0.0	 0.0	 0.0	 0.0	 0.0	 0.0	 0.0	 0.0	 0.0	 0.0	 0.0; % NG
	102	 310.293	 100.073	 185.0	 -185.0	 1.05	 100.0	 1	 370	 7.6	 0.0	 0.0	 0.0	 0.0	 0.0	 0.0	 0.0	 0.0	 0.0	 0.0	 0.0; % NG
	102	 7.6	 27.455	 86.0	 -86.0	 1.05	 100.0	 1	 172	 7.6	 0.0	 0.0	 0.0	 0.0	 0.0	 0.0	 0.0	 0.0	 0.0	 0.0	 0.0; % PEL
	107	 12.5	 64.379	 168.0	 -168.0	 1.023	 100.0	 1	 336	 12.5	 0.0	 0.0	 0.0	 0.0	 0.0	 0.0	 0.0	 0.0	 0.0	 0.0	 0.0; % NG
	107	 318.0	 58.456	 159.0	 -159.0	 1.023	 100.0	 1	 318	 12.5	 0.0	 0.0	 0.0	 0.0	 0.0	 0.0	 0.0	 0.0	 0.0	 0.0	 0.0; % NG
	107	 97.29	 12.323	 69.0	 -69.0	 1.023	 100.0	 1	 137	 12.5	 0.0	 0.0	 0.0	 0.0	 0.0	 0.0	 0.0	 0.0	 0.0	 0.0	 0.0; % NG
	113	 660.0	 113.041	 330.0	 -330.0	 1.04101	 100.0	 1	 660	 34.5	 0.0	 0.0	 0.0	 0.0	 0.0	 0.0	 0.0	 0.0	 0.0	 0.0	 0.0; % NG
	113	 235.945	 70.607	 255.0	 -255.0	 1.04101	 100.0	 1	 510	 34.5	 0.0	 0.0	 0.0	 0.0	 0.0	 0.0	 0.0	 0.0	 0.0	 0.0	 0.0; % NG
	113	 519.0	 73.198	 260.0	 -260.0	 1.04101	 100.0	 1	 519	 34.5	 0.0	 0.0	 0.0	 0.0	 0.0	 0.0	 0.0	 0.0	 0.0	 0.0	 0.0; % NG
	114	 0.0	 138.98	 294.0	 -294.0	 1.01928	 100.0	 1	 0	 0.0	 0.0	 0.0	 0.0	 0.0	 0.0	 0.0	 0.0	 0.0	 0.0	 0.0	 0.0; % SYNC
	115	 1.2	 41.438	 136.0	 -136.0	 1.05	 100.0	 1	 272	 1.2	 0.0	 0.0	 0.0	 0.0	 0.0	 0.0	 0.0	 0.0	 0.0	 0.0	 0.0; % PEL
	115	 313.0	 53.741	 157.0	 -157.0	 1.05	 100.0	 1	 313	 1.2	 0.0	 0.0	 0.0	 0.0	 0.0	 0.0	 0.0	 0.0	 0.0	 0.0	 0.0; % NG
	115	 170.0	 28.144	 110.4	 -110.4	 1.05	 100.0	 1	 170	 1.2	 0.0	 0.0	 0.0	 0.0	 0.0	 0.0	 0.0	 0.0	 0.0	 0.0	 0.0; % NG
	115	 1.2	 28.144	 110.4	 -110.4	 1.05	 100.0	 1	 175	 1.2	 0.0	 0.0	 0.0	 0.0	 0.0	 0.0	 0.0	 0.0	 0.0	 0.0	 0.0; % PEL
	115	 1.2	 28.144	 110.4	 -110.4	 1.05	 100.0	 1	 175	 1.2	 0.0	 0.0	 0.0	 0.0	 0.0	 0.0	 0.0	 0.0	 0.0	 0.0	 0.0; % PEL
	115	 27.15	 42.559	 138.0	 -138.0	 1.05	 100.0	 1	 276	 27.15	 0.0	 0.0	 0.0	 0.0	 0.0	 0.0	 0.0	 0.0	 0.0	 0.0	 0.0; % COW
	116	 618.0	 127.198	 309.0	 -309.0	 1.05	 100.0	 1	 618	 27.15	 0.0	 0.0	 0.0	 0.0	 0.0	 0.0	 0.0	 0.0	 0.0	 0.0	 0.0; % NG
	118	 329.0	 81.816	 200.0	 -165.0	 1.04844	 100.0	 1	 329	 50.0	 0.0	 0.0	 0.0	 0.0	 0.0	 0.0	 0.0	 0.0	 0.0	 0.0	 0.0; % NG
	121	 277.0	 -12.455	 200.0	 -216.0	 1.05	 100.0	 1	 277	 50.0	 0.0	 0.0	 0.0	 0.0	 0.0	 0.0	 0.0	 0.0	 0.0	 0.0	 0.0; % NG
	122	 102.0	 -3.166	 51.0	 -51.0	 1.05	 100.0	 1	 102	 5.0	 0.0	 0.0	 0.0	 0.0	 0.0	 0.0	 0.0	 0.0	 0.0	 0.0	 0.0; % NG
	122	 5.0	 -3.166	 51.0	 -51.0	 1.05	 100.0	 1	 102	 5.0	 0.0	 0.0	 0.0	 0.0	 0.0	 0.0	 0.0	 0.0	 0.0	 0.0	 0.0; % NG
	122	 160.0	 -7.748	 80.0	 -80.0	 1.05	 100.0	 1	 160	 5.0	 0.0	 0.0	 0.0	 0.0	 0.0	 0.0	 0.0	 0.0	 0.0	 0.0	 0.0; % NG
	122	 5.0	 -10.437	 93.0	 -93.0	 1.05	 100.0	 1	 186	 5.0	 0.0	 0.0	 0.0	 0.0	 0.0	 0.0	 0.0	 0.0	 0.0	 0.0	 0.0; % NG
	122	 5.0	 -2.253	 43.0	 -43.0	 1.05	 100.0	 1	 85	 5.0	 0.0	 0.0	 0.0	 0.0	 0.0	 0.0	 0.0	 0.0	 0.0	 0.0	 0.0; % NG
	122	 5.0	 -14.53	 110.0	 -110.0	 1.05	 100.0	 1	 219	 5.0	 0.0	 0.0	 0.0	 0.0	 0.0	 0.0	 0.0	 0.0	 0.0	 0.0	 0.0; % NG
	123	 353.0	 24.496	 177.0	 -177.0	 1.05	 100.0	 1	 353	 27.15	 0.0	 0.0	 0.0	 0.0	 0.0	 0.0	 0.0	 0.0	 0.0	 0.0	 0.0; % NG
	123	 335.0	 22.109	 168.0	 -168.0	 1.05	 100.0	 1	 335	 27.15	 0.0	 0.0	 0.0	 0.0	 0.0	 0.0	 0.0	 0.0	 0.0	 0.0	 0.0; % NG
	123	 432.0	 36.15	 216.0	 -216.0	 1.05	 100.0	 1	 432	 70.0	 0.0	 0.0	 0.0	 0.0	 0.0	 0.0	 0.0	 0.0	 0.0	 0.0	 0.0; % NG
	201	 8.0	 -8.756	 61.0	 -61.0	 1.02944	 100.0	 1	 121	 8.0	 0.0	 0.0	 0.0	 0.0	 0.0	 0.0	 0.0	 0.0	 0.0	 0.0	 0.0; % PEL
	201	 8.0	 -7.403	 56.0	 -56.0	 1.02944	 100.0	 1	 112	 8.0	 0.0	 0.0	 0.0	 0.0	 0.0	 0.0	 0.0	 0.0	 0.0	 0.0	 0.0; % NG
	201	 329.0	 -57.477	 165.0	 -165.0	 1.02944	 100.0	 1	 329	 7.6	 0.0	 0.0	 0.0	 0.0	 0.0	 0.0	 0.0	 0.0	 0.0	 0.0	 0.0; % COW
	201	 8.679	 -19.836	 93.0	 -93.0	 1.02944	 100.0	 1	 186	 7.6	 0.0	 0.0	 0.0	 0.0	 0.0	 0.0	 0.0	 0.0	 0.0	 0.0	 0.0; % NG
	202	 8.0	 38.564	 90.0	 -90.0	 1.05	 100.0	 1	 179	 8.0	 0.0	 0.0	 0.0	 0.0	 0.0	 0.0	 0.0	 0.0	 0.0	 0.0	 0.0; % PEL
	202	 293.0	 84.438	 147.0	 -147.0	 1.05	 100.0	 1	 293	 8.0	 0.0	 0.0	 0.0	 0.0	 0.0	 0.0	 0.0	 0.0	 0.0	 0.0	 0.0; % NG
	202	 29.014	 37.124	 88.0	 -88.0	 1.05	 100.0	 1	 175	 7.6	 0.0	 0.0	 0.0	 0.0	 0.0	 0.0	 0.0	 0.0	 0.0	 0.0	 0.0; % PEL
	202	 196.0	 44.473	 98.0	 -98.0	 1.05	 100.0	 1	 196	 7.6	 0.0	 0.0	 0.0	 0.0	 0.0	 0.0	 0.0	 0.0	 0.0	 0.0	 0.0; % PEL
	207	 244.98	 72.063	 151.0	 -151.0	 1.02168	 100.0	 1	 301	 12.5	 0.0	 0.0	 0.0	 0.0	 0.0	 0.0	 0.0	 0.0	 0.0	 0.0	 0.0; % NG
	207	 136.0	 17.649	 68.0	 -68.0	 1.02168	 100.0	 1	 136	 12.5	 0.0	 0.0	 0.0	 0.0	 0.0	 0.0	 0.0	 0.0	 0.0	 0.0	 0.0; % NG
	207	 12.5	 19.638	 72.0	 -72.0	 1.02168	 100.0	 1	 144	 12.5	 0.0	 0.0	 0.0	 0.0	 0.0	 0.0	 0.0	 0.0	 0.0	 0.0	 0.0; % NG
	213	 434.0	 95.638	 217.0	 -217.0	 1.04147	 100.0	 1	 434	 34.5	 0.0	 0.0	 0.0	 0.0	 0.0	 0.0	 0.0	 0.0	 0.0	 0.0	 0.0; % NG
	213	 551.0	 141.524	 276.0	 -276.0	 1.04147	 100.0	 1	 551	 34.5	 0.0	 0.0	 0.0	 0.0	 0.0	 0.0	 0.0	 0.0	 0.0	 0.0	 0.0; % NG
	213	 152.27	 78.398	 193.0	 -193.0	 1.04147	 100.0	 1	 386	 34.5	 0.0	 0.0	 0.0	 0.0	 0.0	 0.0	 0.0	 0.0	 0.0	 0.0	 0.0; % NG
	214	 0.0	 137.429	 288.0	 -288.0	 1.01095	 100.0	 1	 0	 0.0	 0.0	 0.0	 0.0	 0.0	 0.0	 0.0	 0.0	 0.0	 0.0	 0.0	 0.0; % SYNC
	215	 1.2	 41.9	 81.6	 -81.6	 1.05	 100.0	 1	 142	 1.2	 0.0	 0.0	 0.0	 0.0	 0.0	 0.0	 0.0	 0.0	 0.0	 0.0	 0.0; % PEL
	215	 167.0	 43.86	 84.0	 -84.0	 1.05	 100.0	 1	 167	 1.2	 0.0	 0.0	 0.0	 0.0	 0.0	 0.0	 0.0	 0.0	 0.0	 0.0	 0.0; % NG
	215	 139.0	 41.9	 81.6	 -81.6	 1.05	 100.0	 1	 139	 1.2	 0.0	 0.0	 0.0	 0.0	 0.0	 0.0	 0.0	 0.0	 0.0	 0.0	 0.0; % NG
	215	 1.2	 51.366	 93.0	 -93.0	 1.05	 100.0	 1	 186	 1.2	 0.0	 0.0	 0.0	 0.0	 0.0	 0.0	 0.0	 0.0	 0.0	 0.0	 0.0; % NG
	215	 160.0	 41.9	 81.6	 -81.6	 1.05	 100.0	 1	 160	 1.2	 0.0	 0.0	 0.0	 0.0	 0.0	 0.0	 0.0	 0.0	 0.0	 0.0	 0.0; % NG
	215	 246.0	 77.699	 123.0	 -123.0	 1.05	 100.0	 1	 246	 27.15	 0.0	 0.0	 0.0	 0.0	 0.0	 0.0	 0.0	 0.0	 0.0	 0.0	 0.0; % NG
	216	 477.0	 71.056	 239.0	 -239.0	 1.03715	 100.0	 1	 477	 27.15	 0.0	 0.0	 0.0	 0.0	 0.0	 0.0	 0.0	 0.0	 0.0	 0.0	 0.0; % NG
	218	 308.0	 74.418	 200.0	 -154.0	 1.04149	 100.0	 1	 308	 50.0	 0.0	 0.0	 0.0	 0.0	 0.0	 0.0	 0.0	 0.0	 0.0	 0.0	 0.0; % NG
	221	 50.0	 16.902	 200.0	 -118.0	 1.04679	 100.0	 1	 235	 50.0	 0.0	 0.0	 0.0	 0.0	 0.0	 0.0	 0.0	 0.0	 0.0	 0.0	 0.0; % NG
	222	 5.0	 -9.731	 95.0	 -95.0	 1.05	 100.0	 1	 189	 5.0	 0.0	 0.0	 0.0	 0.0	 0.0	 0.0	 0.0	 0.0	 0.0	 0.0	 0.0; % NG
	222	 5.0	 -2.826	 51.0	 -51.0	 1.05	 100.0	 1	 101	 5.0	 0.0	 0.0	 0.0	 0.0	 0.0	 0.0	 0.0	 0.0	 0.0	 0.0	 0.0; % NG
	222	 111.0	 -3.405	 56.0	 -56.0	 1.05	 100.0	 1	 111	 5.0	 0.0	 0.0	 0.0	 0.0	 0.0	 0.0	 0.0	 0.0	 0.0	 0.0	 0.0; % NG
	222	 177.0	 -8.552	 89.0	 -89.0	 1.05	 100.0	 1	 177	 5.0	 0.0	 0.0	 0.0	 0.0	 0.0	 0.0	 0.0	 0.0	 0.0	 0.0	 0.0; % NG
	222	 79.0	 -1.74	 40.0	 -40.0	 1.05	 100.0	 1	 79	 5.0	 0.0	 0.0	 0.0	 0.0	 0.0	 0.0	 0.0	 0.0	 0.0	 0.0	 0.0; % NG
	222	 5.0	 -1.918	 42.0	 -42.0	 1.05	 100.0	 1	 84	 5.0	 0.0	 0.0	 0.0	 0.0	 0.0	 0.0	 0.0	 0.0	 0.0	 0.0	 0.0; % NG
	223	 293.0	 39.36	 147.0	 -147.0	 1.03129	 100.0	 1	 293	 27.15	 0.0	 0.0	 0.0	 0.0	 0.0	 0.0	 0.0	 0.0	 0.0	 0.0	 0.0; % NG
	223	 27.15	 28.132	 123.0	 -123.0	 1.03129	 100.0	 1	 246	 27.15	 0.0	 0.0	 0.0	 0.0	 0.0	 0.0	 0.0	 0.0	 0.0	 0.0	 0.0; % NG
	223	 70.0	 56.012	 178.0	 -178.0	 1.03129	 100.0	 1	 355	 70.0	 0.0	 0.0	 0.0	 0.0	 0.0	 0.0	 0.0	 0.0	 0.0	 0.0	 0.0; % NG
	301	 48.718	 30.502	 45.0	 -45.0	 1.05	 100.0	 1	 90	 8.0	 0.0	 0.0	 0.0	 0.0	 0.0	 0.0	 0.0	 0.0	 0.0	 0.0	 0.0; % PEL
	301	 74.0	 23.177	 37.0	 -37.0	 1.05	 100.0	 1	 74	 8.0	 0.0	 0.0	 0.0	 0.0	 0.0	 0.0	 0.0	 0.0	 0.0	 0.0	 0.0; % PEL
	301	 83.0	 27.728	 42.0	 -42.0	 1.05	 100.0	 1	 83	 7.6	 0.0	 0.0	 0.0	 0.0	 0.0	 0.0	 0.0	 0.0	 0.0	 0.0	 0.0; % NG
	301	 75.0	 24.079	 38.0	 -38.0	 1.05	 100.0	 1	 75	 7.6	 0.0	 0.0	 0.0	 0.0	 0.0	 0.0	 0.0	 0.0	 0.0	 0.0	 0.0; % NG
	302	 163.0	 5.741	 82.0	 -82.0	 1.05	 100.0	 1	 163	 8.0	 0.0	 0.0	 0.0	 0.0	 0.0	 0.0	 0.0	 0.0	 0.0	 0.0	 0.0; % COW
	302	 196.0	 8.182	 98.0	 -98.0	 1.05	 100.0	 1	 196	 8.0	 0.0	 0.0	 0.0	 0.0	 0.0	 0.0	 0.0	 0.0	 0.0	 0.0	 0.0; % PEL
	302	 234.0	 11.628	 117.0	 -117.0	 1.05	 100.0	 1	 234	 7.6	 0.0	 0.0	 0.0	 0.0	 0.0	 0.0	 0.0	 0.0	 0.0	 0.0	 0.0; % NG
	302	 13.58	 12.633	 122.0	 -122.0	 1.05	 100.0	 1	 243	 7.6	 0.0	 0.0	 0.0	 0.0	 0.0	 0.0	 0.0	 0.0	 0.0	 0.0	 0.0; % PEL
	307	 144.0	 22.514	 72.0	 -72.0	 1.05	 100.0	 1	 144	 12.5	 0.0	 0.0	 0.0	 0.0	 0.0	 0.0	 0.0	 0.0	 0.0	 0.0	 0.0; % NG
	307	 118.593	 49.615	 113.0	 -113.0	 1.05	 100.0	 1	 225	 12.5	 0.0	 0.0	 0.0	 0.0	 0.0	 0.0	 0.0	 0.0	 0.0	 0.0	 0.0; % NG
	307	 12.5	 105.683	 182.0	 -182.0	 1.05	 100.0	 1	 363	 12.5	 0.0	 0.0	 0.0	 0.0	 0.0	 0.0	 0.0	 0.0	 0.0	 0.0	 0.0; % NG
	313	 577.0	 120.17	 289.0	 -289.0	 1.04079	 100.0	 1	 577	 34.5	 0.0	 0.0	 0.0	 0.0	 0.0	 0.0	 0.0	 0.0	 0.0	 0.0	 0.0; % NG
	313	 299.728	 65.036	 204.0	 -204.0	 1.04079	 100.0	 1	 408	 34.5	 0.0	 0.0	 0.0	 0.0	 0.0	 0.0	 0.0	 0.0	 0.0	 0.0	 0.0; % NG
	313	 509.0	 96.811	 255.0	 -255.0	 1.04079	 100.0	 1	 509	 34.5	 0.0	 0.0	 0.0	 0.0	 0.0	 0.0	 0.0	 0.0	 0.0	 0.0	 0.0; % NG
	314	 0.0	 270.41	 297.6	 -297.6	 1.05	 100.0	 1	 0	 0.0	 0.0	 0.0	 0.0	 0.0	 0.0	 0.0	 0.0	 0.0	 0.0	 0.0	 0.0; % SYNC
	315	 110.0	 28.188	 110.4	 -110.4	 1.05	 100.0	 1	 110	 1.2	 0.0	 0.0	 0.0	 0.0	 0.0	 0.0	 0.0	 0.0	 0.0	 0.0	 0.0; % NG
	315	 294.0	 47.806	 147.0	 -147.0	 1.05	 100.0	 1	 294	 1.2	 0.0	 0.0	 0.0	 0.0	 0.0	 0.0	 0.0	 0.0	 0.0	 0.0	 0.0; % COW
	315	 1.2	 28.188	 110.4	 -110.4	 1.05	 100.0	 1	 150	 1.2	 0.0	 0.0	 0.0	 0.0	 0.0	 0.0	 0.0	 0.0	 0.0	 0.0	 0.0; % NG
	315	 1.2	 28.188	 110.4	 -110.4	 1.05	 100.0	 1	 148	 1.2	 0.0	 0.0	 0.0	 0.0	 0.0	 0.0	 0.0	 0.0	 0.0	 0.0	 0.0; % PEL
	315	 137.0	 28.188	 110.4	 -110.4	 1.05	 100.0	 1	 137	 1.2	 0.0	 0.0	 0.0	 0.0	 0.0	 0.0	 0.0	 0.0	 0.0	 0.0	 0.0; % NG
	315	 247.0	 35.008	 124.0	 -124.0	 1.05	 100.0	 1	 247	 27.15	 0.0	 0.0	 0.0	 0.0	 0.0	 0.0	 0.0	 0.0	 0.0	 0.0	 0.0; % NG
	316	 1097.0	 55.209	 549.0	 -549.0	 1.05	 100.0	 1	 1097	 27.15	 0.0	 0.0	 0.0	 0.0	 0.0	 0.0	 0.0	 0.0	 0.0	 0.0	 0.0; % COW
	318	 341.0	 126.009	 200.0	 -171.0	 1.04425	 100.0	 1	 341	 50.0	 0.0	 0.0	 0.0	 0.0	 0.0	 0.0	 0.0	 0.0	 0.0	 0.0	 0.0; % NG
	321	 50.0	 73.004	 200.0	 -171.6	 1.05	 100.0	 1	 221	 50.0	 0.0	 0.0	 0.0	 0.0	 0.0	 0.0	 0.0	 0.0	 0.0	 0.0	 0.0; % NG
	322	 103.0	 -0.971	 52.0	 -52.0	 1.05	 100.0	 1	 103	 5.0	 0.0	 0.0	 0.0	 0.0	 0.0	 0.0	 0.0	 0.0	 0.0	 0.0	 0.0; % NG
	322	 5.0	 -5.163	 120.0	 -120.0	 1.05	 100.0	 1	 239	 5.0	 0.0	 0.0	 0.0	 0.0	 0.0	 0.0	 0.0	 0.0	 0.0	 0.0	 0.0; % NG
	322	 5.0	 -5.512	 124.0	 -124.0	 1.05	 100.0	 1	 248	 5.0	 0.0	 0.0	 0.0	 0.0	 0.0	 0.0	 0.0	 0.0	 0.0	 0.0	 0.0; % NG
	322	 332.0	 -9.863	 166.0	 -166.0	 1.05	 100.0	 1	 332	 5.0	 0.0	 0.0	 0.0	 0.0	 0.0	 0.0	 0.0	 0.0	 0.0	 0.0	 0.0; % NG
	322	 168.0	 -2.532	 84.0	 -84.0	 1.05	 100.0	 1	 168	 5.0	 0.0	 0.0	 0.0	 0.0	 0.0	 0.0	 0.0	 0.0	 0.0	 0.0	 0.0; % COW
	322	 5.0	 -0.604	 41.0	 -41.0	 1.05	 100.0	 1	 82	 5.0	 0.0	 0.0	 0.0	 0.0	 0.0	 0.0	 0.0	 0.0	 0.0	 0.0	 0.0; % PEL
	323	 312.0	 16.535	 156.0	 -156.0	 1.04858	 100.0	 1	 312	 27.15	 0.0	 0.0	 0.0	 0.0	 0.0	 0.0	 0.0	 0.0	 0.0	 0.0	 0.0; % NG
	323	 27.15	 41.75	 250.0	 -250.0	 1.04858	 100.0	 1	 500	 27.15	 0.0	 0.0	 0.0	 0.0	 0.0	 0.0	 0.0	 0.0	 0.0	 0.0	 0.0; % NG
	323	 396.0	 26.459	 198.0	 -198.0	 1.04858	 100.0	 1	 396	 70.0	 0.0	 0.0	 0.0	 0.0	 0.0	 0.0	 0.0	 0.0	 0.0	 0.0	 0.0; % COW
];

%% generator cost data
%	2	startup	shutdown	n	c(n-1)	...	c0
mpc.gencost = [
	2	 1500.0	 0.0	 3	   0.000000	   6.899088	   0.000000; % PEL
	2	 1500.0	 0.0	 3	   0.000000	   0.977088	   0.000000; % NG
	2	 1500.0	 0.0	 3	   0.000000	   1.259855	   0.000000; % NG
	2	 1500.0	 0.0	 3	   0.000000	   1.013890	   0.000000; % NG
	2	 1500.0	 0.0	 3	   0.000000	   7.085197	   0.000000; % PEL
	2	 1500.0	 0.0	 3	   0.000000	   1.196187	   0.000000; % NG
	2	 1500.0	 0.0	 3	   0.000000	   1.200910	   0.000000; % NG
	2	 1500.0	 0.0	 3	   0.000000	   7.666256	   0.000000; % PEL
	2	 1500.0	 0.0	 3	   0.000000	   1.138532	   0.000000; % NG
	2	 1500.0	 0.0	 3	   0.000000	   0.835103	   0.000000; % NG
	2	 1500.0	 0.0	 3	   0.000000	   0.962223	   0.000000; % NG
	2	 1500.0	 0.0	 3	   0.000000	   0.928292	   0.000000; % NG
	2	 1500.0	 0.0	 3	   0.000000	   1.254959	   0.000000; % NG
	2	 1500.0	 0.0	 3	   0.000000	   0.967233	   0.000000; % NG
	2	 1500.0	 0.0	 3	   0.000000	   0.000000	   0.000000; % SYNC
	2	 1500.0	 0.0	 3	   0.000000	   7.345839	   0.000000; % PEL
	2	 1500.0	 0.0	 3	   0.000000	   0.871443	   0.000000; % NG
	2	 1500.0	 0.0	 3	   0.000000	   0.813625	   0.000000; % NG
	2	 1500.0	 0.0	 3	   0.000000	   6.820811	   0.000000; % PEL
	2	 1500.0	 0.0	 3	   0.000000	   6.664806	   0.000000; % PEL
	2	 1500.0	 0.0	 3	   0.000000	   1.238952	   0.000000; % COW
	2	 1500.0	 0.0	 3	   0.000000	   1.026566	   0.000000; % NG
	2	 1500.0	 0.0	 3	   0.000000	   1.171668	   0.000000; % NG
	2	 1500.0	 0.0	 3	   0.000000	   0.847402	   0.000000; % NG
	2	 1500.0	 0.0	 3	   0.000000	   1.137486	   0.000000; % NG
	2	 1500.0	 0.0	 3	   0.000000	   1.169956	   0.000000; % NG
	2	 1500.0	 0.0	 3	   0.000000	   0.800634	   0.000000; % NG
	2	 1500.0	 0.0	 3	   0.000000	   1.307379	   0.000000; % NG
	2	 1500.0	 0.0	 3	   0.000000	   1.239961	   0.000000; % NG
	2	 1500.0	 0.0	 3	   0.000000	   1.198930	   0.000000; % NG
	2	 1500.0	 0.0	 3	   0.000000	   1.144919	   0.000000; % NG
	2	 1500.0	 0.0	 3	   0.000000	   1.194374	   0.000000; % NG
	2	 1500.0	 0.0	 3	   0.000000	   1.154827	   0.000000; % NG
	2	 1500.0	 0.0	 3	   0.000000	   7.487504	   0.000000; % PEL
	2	 1500.0	 0.0	 3	   0.000000	   1.255763	   0.000000; % NG
	2	 1500.0	 0.0	 3	   0.000000	   0.558001	   0.000000; % COW
	2	 1500.0	 0.0	 3	   0.000000	   0.989991	   0.000000; % NG
	2	 1500.0	 0.0	 3	   0.000000	   7.382006	   0.000000; % PEL
	2	 1500.0	 0.0	 3	   0.000000	   1.042216	   0.000000; % NG
	2	 1500.0	 0.0	 3	   0.000000	   7.159291	   0.000000; % PEL
	2	 1500.0	 0.0	 3	   0.000000	   6.755238	   0.000000; % PEL
	2	 1500.0	 0.0	 3	   0.000000	   1.080203	   0.000000; % NG
	2	 1500.0	 0.0	 3	   0.000000	   0.653700	   0.000000; % NG
	2	 1500.0	 0.0	 3	   0.000000	   1.276741	   0.000000; % NG
	2	 1500.0	 0.0	 3	   0.000000	   1.102632	   0.000000; % NG
	2	 1500.0	 0.0	 3	   0.000000	   0.688311	   0.000000; % NG
	2	 1500.0	 0.0	 3	   0.000000	   1.166825	   0.000000; % NG
	2	 1500.0	 0.0	 3	   0.000000	   0.000000	   0.000000; % SYNC
	2	 1500.0	 0.0	 3	   0.000000	   6.174612	   0.000000; % PEL
	2	 1500.0	 0.0	 3	   0.000000	   1.128877	   0.000000; % NG
	2	 1500.0	 0.0	 3	   0.000000	   0.915127	   0.000000; % NG
	2	 1500.0	 0.0	 3	   0.000000	   1.288798	   0.000000; % NG
	2	 1500.0	 0.0	 3	   0.000000	   1.160986	   0.000000; % NG
	2	 1500.0	 0.0	 3	   0.000000	   1.220363	   0.000000; % NG
	2	 1500.0	 0.0	 3	   0.000000	   0.788072	   0.000000; % NG
	2	 1500.0	 0.0	 3	   0.000000	   1.219370	   0.000000; % NG
	2	 1500.0	 0.0	 3	   0.000000	   1.308812	   0.000000; % NG
	2	 1500.0	 0.0	 3	   0.000000	   1.218487	   0.000000; % NG
	2	 1500.0	 0.0	 3	   0.000000	   1.490862	   0.000000; % NG
	2	 1500.0	 0.0	 3	   0.000000	   0.879665	   0.000000; % NG
	2	 1500.0	 0.0	 3	   0.000000	   1.070267	   0.000000; % NG
	2	 1500.0	 0.0	 3	   0.000000	   0.864312	   0.000000; % NG
	2	 1500.0	 0.0	 3	   0.000000	   1.232177	   0.000000; % NG
	2	 1500.0	 0.0	 3	   0.000000	   1.054858	   0.000000; % NG
	2	 1500.0	 0.0	 3	   0.000000	   1.434305	   0.000000; % NG
	2	 1500.0	 0.0	 3	   0.000000	   1.496032	   0.000000; % NG
	2	 1500.0	 0.0	 3	   0.000000	   6.796180	   0.000000; % PEL
	2	 1500.0	 0.0	 3	   0.000000	   6.772120	   0.000000; % PEL
	2	 1500.0	 0.0	 3	   0.000000	   0.900828	   0.000000; % NG
	2	 1500.0	 0.0	 3	   0.000000	   0.808016	   0.000000; % NG
	2	 1500.0	 0.0	 3	   0.000000	   0.930732	   0.000000; % COW
	2	 1500.0	 0.0	 3	   0.000000	   7.356983	   0.000000; % PEL
	2	 1500.0	 0.0	 3	   0.000000	   1.207650	   0.000000; % NG
	2	 1500.0	 0.0	 3	   0.000000	   7.559081	   0.000000; % PEL
	2	 1500.0	 0.0	 3	   0.000000	   1.243152	   0.000000; % NG
	2	 1500.0	 0.0	 3	   0.000000	   1.308311	   0.000000; % NG
	2	 1500.0	 0.0	 3	   0.000000	   1.537562	   0.000000; % NG
	2	 1500.0	 0.0	 3	   0.000000	   0.932306	   0.000000; % NG
	2	 1500.0	 0.0	 3	   0.000000	   0.938891	   0.000000; % NG
	2	 1500.0	 0.0	 3	   0.000000	   0.881899	   0.000000; % NG
	2	 1500.0	 0.0	 3	   0.000000	   0.000000	   0.000000; % SYNC
	2	 1500.0	 0.0	 3	   0.000000	   1.055301	   0.000000; % NG
	2	 1500.0	 0.0	 3	   0.000000	   0.685910	   0.000000; % COW
	2	 1500.0	 0.0	 3	   0.000000	   1.189365	   0.000000; % NG
	2	 1500.0	 0.0	 3	   0.000000	   7.019561	   0.000000; % PEL
	2	 1500.0	 0.0	 3	   0.000000	   1.042151	   0.000000; % NG
	2	 1500.0	 0.0	 3	   0.000000	   0.993059	   0.000000; % NG
	2	 1500.0	 0.0	 3	   0.000000	   0.855905	   0.000000; % COW
	2	 1500.0	 0.0	 3	   0.000000	   1.032478	   0.000000; % NG
	2	 1500.0	 0.0	 3	   0.000000	   1.322508	   0.000000; % NG
	2	 1500.0	 0.0	 3	   0.000000	   1.001967	   0.000000; % NG
	2	 1500.0	 0.0	 3	   0.000000	   1.161777	   0.000000; % NG
	2	 1500.0	 0.0	 3	   0.000000	   1.339342	   0.000000; % NG
	2	 1500.0	 0.0	 3	   0.000000	   1.074583	   0.000000; % NG
	2	 1500.0	 0.0	 3	   0.000000	   0.807916	   0.000000; % COW
	2	 1500.0	 0.0	 3	   0.000000	   6.171674	   0.000000; % PEL
	2	 1500.0	 0.0	 3	   0.000000	   0.988315	   0.000000; % NG
	2	 1500.0	 0.0	 3	   0.000000	   1.225744	   0.000000; % NG
	2	 1500.0	 0.0	 3	   0.000000	   0.620565	   0.000000; % COW
];

%% branch data
%	fbus	tbus	r	x	b	rateA	rateB	rateC	ratio	angle	status	angmin	angmax
mpc.branch = [
	101	 102	 0.003	 0.014	 0.461	 175.0	 193.0	 200.0	 0.0	 0.0	 1	 -30.0	 30.0;
	101	 103	 0.055	 0.211	 0.057	 175.0	 208.0	 220.0	 0.0	 0.0	 1	 -30.0	 30.0;
	101	 105	 0.022	 0.085	 0.023	 175.0	 208.0	 220.0	 0.0	 0.0	 1	 -30.0	 30.0;
	102	 104	 0.033	 0.127	 0.034	 175.0	 208.0	 220.0	 0.0	 0.0	 1	 -30.0	 30.0;
	102	 106	 0.05	 0.192	 0.052	 175.0	 208.0	 220.0	 0.0	 0.0	 1	 -30.0	 30.0;
	103	 109	 0.031	 0.119	 0.032	 175.0	 208.0	 220.0	 0.0	 0.0	 1	 -30.0	 30.0;
	103	 124	 0.002	 0.084	 0.0	 400.0	 510.0	 600.0	 1.015	 0.0	 1	 -30.0	 30.0;
	104	 109	 0.027	 0.104	 0.028	 175.0	 208.0	 220.0	 0.0	 0.0	 1	 -30.0	 30.0;
	105	 110	 0.023	 0.088	 0.024	 175.0	 208.0	 220.0	 0.0	 0.0	 1	 -30.0	 30.0;
	106	 110	 0.014	 0.061	 2.459	 175.0	 193.0	 200.0	 0.0	 0.0	 1	 -30.0	 30.0;
	107	 108	 0.016	 0.061	 0.017	 175.0	 208.0	 220.0	 0.0	 0.0	 1	 -30.0	 30.0;
	107	 203	 0.042	 0.161	 0.044	 175.0	 208.0	 220.0	 0.0	 0.0	 1	 -30.0	 30.0;
	108	 109	 0.043	 0.165	 0.045	 175.0	 208.0	 220.0	 0.0	 0.0	 1	 -30.0	 30.0;
	108	 110	 0.043	 0.165	 0.045	 175.0	 208.0	 220.0	 0.0	 0.0	 1	 -30.0	 30.0;
	109	 111	 0.002	 0.084	 0.0	 400.0	 510.0	 600.0	 1.03	 0.0	 1	 -30.0	 30.0;
	109	 112	 0.002	 0.084	 0.0	 400.0	 510.0	 600.0	 1.03	 0.0	 1	 -30.0	 30.0;
	110	 111	 0.002	 0.084	 0.0	 400.0	 510.0	 600.0	 1.015	 0.0	 1	 -30.0	 30.0;
	110	 112	 0.002	 0.084	 0.0	 400.0	 510.0	 600.0	 1.015	 0.0	 1	 -30.0	 30.0;
	111	 113	 0.006	 0.048	 0.1	 500.0	 600.0	 625.0	 0.0	 0.0	 1	 -30.0	 30.0;
	111	 114	 0.005	 0.042	 0.088	 500.0	 600.0	 625.0	 0.0	 0.0	 1	 -30.0	 30.0;
	112	 113	 0.006	 0.048	 0.1	 500.0	 600.0	 625.0	 0.0	 0.0	 1	 -30.0	 30.0;
	112	 123	 0.012	 0.097	 0.203	 500.0	 600.0	 625.0	 0.0	 0.0	 1	 -30.0	 30.0;
	113	 123	 0.011	 0.087	 0.182	 500.0	 600.0	 625.0	 0.0	 0.0	 1	 -30.0	 30.0;
	113	 215	 0.01	 0.075	 0.158	 500.0	 600.0	 625.0	 0.0	 0.0	 1	 -30.0	 30.0;
	114	 116	 0.005	 0.059	 0.082	 500.0	 600.0	 625.0	 0.0	 0.0	 1	 -30.0	 30.0;
	115	 116	 0.002	 0.017	 0.036	 500.0	 600.0	 625.0	 0.0	 0.0	 1	 -30.0	 30.0;
	115	 121	 0.006	 0.049	 0.103	 500.0	 600.0	 625.0	 0.0	 0.0	 1	 -30.0	 30.0;
	115	 121	 0.006	 0.049	 0.103	 500.0	 600.0	 625.0	 0.0	 0.0	 1	 -30.0	 30.0;
	115	 124	 0.007	 0.052	 0.109	 500.0	 600.0	 625.0	 0.0	 0.0	 1	 -30.0	 30.0;
	116	 117	 0.003	 0.026	 0.055	 500.0	 600.0	 625.0	 0.0	 0.0	 1	 -30.0	 30.0;
	116	 119	 0.003	 0.023	 0.049	 500.0	 600.0	 625.0	 0.0	 0.0	 1	 -30.0	 30.0;
	117	 118	 0.002	 0.014	 0.03	 500.0	 600.0	 625.0	 0.0	 0.0	 1	 -30.0	 30.0;
	117	 122	 0.014	 0.105	 0.221	 500.0	 600.0	 625.0	 0.0	 0.0	 1	 -30.0	 30.0;
	118	 121	 0.003	 0.026	 0.055	 500.0	 600.0	 625.0	 0.0	 0.0	 1	 -30.0	 30.0;
	118	 121	 0.003	 0.026	 0.055	 500.0	 600.0	 625.0	 0.0	 0.0	 1	 -30.0	 30.0;
	119	 120	 0.005	 0.04	 0.083	 500.0	 600.0	 625.0	 0.0	 0.0	 1	 -30.0	 30.0;
	119	 120	 0.005	 0.04	 0.083	 500.0	 600.0	 625.0	 0.0	 0.0	 1	 -30.0	 30.0;
	120	 123	 0.003	 0.022	 0.046	 500.0	 600.0	 625.0	 0.0	 0.0	 1	 -30.0	 30.0;
	120	 123	 0.003	 0.022	 0.046	 500.0	 600.0	 625.0	 0.0	 0.0	 1	 -30.0	 30.0;
	121	 122	 0.009	 0.068	 0.142	 500.0	 600.0	 625.0	 0.0	 0.0	 1	 -30.0	 30.0;
	123	 217	 0.01	 0.074	 0.155	 500.0	 600.0	 625.0	 0.0	 0.0	 1	 -30.0	 30.0;
	201	 202	 0.003	 0.014	 0.461	 175.0	 193.0	 200.0	 0.0	 0.0	 1	 -30.0	 30.0;
	201	 203	 0.055	 0.211	 0.057	 175.0	 208.0	 220.0	 0.0	 0.0	 1	 -30.0	 30.0;
	201	 205	 0.022	 0.085	 0.023	 175.0	 208.0	 220.0	 0.0	 0.0	 1	 -30.0	 30.0;
	202	 204	 0.033	 0.127	 0.034	 175.0	 208.0	 220.0	 0.0	 0.0	 1	 -30.0	 30.0;
	202	 206	 0.05	 0.192	 0.052	 175.0	 208.0	 220.0	 0.0	 0.0	 1	 -30.0	 30.0;
	203	 209	 0.031	 0.119	 0.032	 175.0	 208.0	 220.0	 0.0	 0.0	 1	 -30.0	 30.0;
	203	 224	 0.002	 0.084	 0.0	 400.0	 510.0	 600.0	 1.015	 0.0	 1	 -30.0	 30.0;
	204	 209	 0.027	 0.104	 0.028	 175.0	 208.0	 220.0	 0.0	 0.0	 1	 -30.0	 30.0;
	205	 210	 0.023	 0.088	 0.024	 175.0	 208.0	 220.0	 0.0	 0.0	 1	 -30.0	 30.0;
	206	 210	 0.014	 0.061	 2.459	 175.0	 193.0	 200.0	 0.0	 0.0	 1	 -30.0	 30.0;
	207	 208	 0.016	 0.061	 0.017	 175.0	 208.0	 220.0	 0.0	 0.0	 1	 -30.0	 30.0;
	208	 209	 0.043	 0.165	 0.045	 175.0	 208.0	 220.0	 0.0	 0.0	 1	 -30.0	 30.0;
	208	 210	 0.043	 0.165	 0.045	 175.0	 208.0	 220.0	 0.0	 0.0	 1	 -30.0	 30.0;
	209	 211	 0.002	 0.084	 0.0	 400.0	 510.0	 600.0	 1.03	 0.0	 1	 -30.0	 30.0;
	209	 212	 0.002	 0.084	 0.0	 400.0	 510.0	 600.0	 1.03	 0.0	 1	 -30.0	 30.0;
	210	 211	 0.002	 0.084	 0.0	 400.0	 510.0	 600.0	 1.015	 0.0	 1	 -30.0	 30.0;
	210	 212	 0.002	 0.084	 0.0	 400.0	 510.0	 600.0	 1.015	 0.0	 1	 -30.0	 30.0;
	211	 213	 0.006	 0.048	 0.1	 500.0	 600.0	 625.0	 0.0	 0.0	 1	 -30.0	 30.0;
	211	 214	 0.005	 0.042	 0.088	 500.0	 600.0	 625.0	 0.0	 0.0	 1	 -30.0	 30.0;
	212	 213	 0.006	 0.048	 0.1	 500.0	 600.0	 625.0	 0.0	 0.0	 1	 -30.0	 30.0;
	212	 223	 0.012	 0.097	 0.203	 500.0	 600.0	 625.0	 0.0	 0.0	 1	 -30.0	 30.0;
	213	 223	 0.011	 0.087	 0.182	 500.0	 600.0	 625.0	 0.0	 0.0	 1	 -30.0	 30.0;
	214	 216	 0.005	 0.059	 0.082	 500.0	 600.0	 625.0	 0.0	 0.0	 1	 -30.0	 30.0;
	215	 216	 0.002	 0.017	 0.036	 500.0	 600.0	 625.0	 0.0	 0.0	 1	 -30.0	 30.0;
	215	 221	 0.006	 0.049	 0.103	 500.0	 600.0	 625.0	 0.0	 0.0	 1	 -30.0	 30.0;
	215	 221	 0.006	 0.049	 0.103	 500.0	 600.0	 625.0	 0.0	 0.0	 1	 -30.0	 30.0;
	215	 224	 0.007	 0.052	 0.109	 500.0	 600.0	 625.0	 0.0	 0.0	 1	 -30.0	 30.0;
	216	 217	 0.003	 0.026	 0.055	 500.0	 600.0	 625.0	 0.0	 0.0	 1	 -30.0	 30.0;
	216	 219	 0.003	 0.023	 0.049	 500.0	 600.0	 625.0	 0.0	 0.0	 1	 -30.0	 30.0;
	217	 218	 0.002	 0.014	 0.03	 500.0	 600.0	 625.0	 0.0	 0.0	 1	 -30.0	 30.0;
	217	 222	 0.014	 0.105	 0.221	 500.0	 600.0	 625.0	 0.0	 0.0	 1	 -30.0	 30.0;
	218	 221	 0.003	 0.026	 0.055	 500.0	 600.0	 625.0	 0.0	 0.0	 1	 -30.0	 30.0;
	218	 221	 0.003	 0.026	 0.055	 500.0	 600.0	 625.0	 0.0	 0.0	 1	 -30.0	 30.0;
	219	 220	 0.005	 0.04	 0.083	 500.0	 600.0	 625.0	 0.0	 0.0	 1	 -30.0	 30.0;
	219	 220	 0.005	 0.04	 0.083	 500.0	 600.0	 625.0	 0.0	 0.0	 1	 -30.0	 30.0;
	220	 223	 0.003	 0.022	 0.046	 500.0	 600.0	 625.0	 0.0	 0.0	 1	 -30.0	 30.0;
	220	 223	 0.003	 0.022	 0.046	 500.0	 600.0	 625.0	 0.0	 0.0	 1	 -30.0	 30.0;
	221	 222	 0.009	 0.068	 0.142	 500.0	 600.0	 625.0	 0.0	 0.0	 1	 -30.0	 30.0;
	301	 302	 0.003	 0.014	 0.461	 175.0	 193.0	 200.0	 0.0	 0.0	 1	 -30.0	 30.0;
	301	 303	 0.055	 0.211	 0.057	 175.0	 208.0	 220.0	 0.0	 0.0	 1	 -30.0	 30.0;
	301	 305	 0.022	 0.085	 0.023	 175.0	 208.0	 220.0	 0.0	 0.0	 1	 -30.0	 30.0;
	302	 304	 0.033	 0.127	 0.034	 175.0	 208.0	 220.0	 0.0	 0.0	 1	 -30.0	 30.0;
	302	 306	 0.05	 0.192	 0.052	 175.0	 208.0	 220.0	 0.0	 0.0	 1	 -30.0	 30.0;
	303	 309	 0.031	 0.119	 0.032	 175.0	 208.0	 220.0	 0.0	 0.0	 1	 -30.0	 30.0;
	303	 324	 0.002	 0.084	 0.0	 400.0	 510.0	 600.0	 1.015	 0.0	 1	 -30.0	 30.0;
	304	 309	 0.027	 0.104	 0.028	 175.0	 208.0	 220.0	 0.0	 0.0	 1	 -30.0	 30.0;
	305	 310	 0.023	 0.088	 0.024	 175.0	 208.0	 220.0	 0.0	 0.0	 1	 -30.0	 30.0;
	306	 310	 0.014	 0.061	 2.459	 175.0	 193.0	 200.0	 0.0	 0.0	 1	 -30.0	 30.0;
	307	 308	 0.016	 0.061	 0.017	 175.0	 208.0	 220.0	 0.0	 0.0	 1	 -30.0	 30.0;
	308	 309	 0.043	 0.165	 0.045	 175.0	 208.0	 220.0	 0.0	 0.0	 1	 -30.0	 30.0;
	308	 310	 0.043	 0.165	 0.045	 175.0	 208.0	 220.0	 0.0	 0.0	 1	 -30.0	 30.0;
	309	 311	 0.002	 0.084	 0.0	 400.0	 510.0	 600.0	 1.03	 0.0	 1	 -30.0	 30.0;
	309	 312	 0.002	 0.084	 0.0	 400.0	 510.0	 600.0	 1.03	 0.0	 1	 -30.0	 30.0;
	310	 311	 0.002	 0.084	 0.0	 400.0	 510.0	 600.0	 1.015	 0.0	 1	 -30.0	 30.0;
	310	 312	 0.002	 0.084	 0.0	 400.0	 510.0	 600.0	 1.015	 0.0	 1	 -30.0	 30.0;
	311	 313	 0.006	 0.048	 0.1	 500.0	 600.0	 625.0	 0.0	 0.0	 1	 -30.0	 30.0;
	311	 314	 0.005	 0.042	 0.088	 500.0	 600.0	 625.0	 0.0	 0.0	 1	 -30.0	 30.0;
	312	 313	 0.006	 0.048	 0.1	 500.0	 600.0	 625.0	 0.0	 0.0	 1	 -30.0	 30.0;
	312	 323	 0.012	 0.097	 0.203	 500.0	 600.0	 625.0	 0.0	 0.0	 1	 -30.0	 30.0;
	313	 323	 0.011	 0.087	 0.182	 500.0	 600.0	 625.0	 0.0	 0.0	 1	 -30.0	 30.0;
	314	 316	 0.005	 0.059	 0.082	 500.0	 600.0	 625.0	 0.0	 0.0	 1	 -30.0	 30.0;
	315	 316	 0.002	 0.017	 0.036	 500.0	 600.0	 625.0	 0.0	 0.0	 1	 -30.0	 30.0;
	315	 321	 0.006	 0.049	 0.103	 500.0	 600.0	 625.0	 0.0	 0.0	 1	 -30.0	 30.0;
	315	 321	 0.006	 0.049	 0.103	 500.0	 600.0	 625.0	 0.0	 0.0	 1	 -30.0	 30.0;
	315	 324	 0.007	 0.052	 0.109	 500.0	 600.0	 625.0	 0.0	 0.0	 1	 -30.0	 30.0;
	316	 317	 0.003	 0.026	 0.055	 500.0	 600.0	 625.0	 0.0	 0.0	 1	 -30.0	 30.0;
	316	 319	 0.003	 0.023	 0.049	 500.0	 600.0	 625.0	 0.0	 0.0	 1	 -30.0	 30.0;
	317	 318	 0.002	 0.014	 0.03	 500.0	 600.0	 625.0	 0.0	 0.0	 1	 -30.0	 30.0;
	317	 322	 0.014	 0.105	 0.221	 500.0	 600.0	 625.0	 0.0	 0.0	 1	 -30.0	 30.0;
	318	 321	 0.003	 0.026	 0.055	 500.0	 600.0	 625.0	 0.0	 0.0	 1	 -30.0	 30.0;
	318	 321	 0.003	 0.026	 0.055	 500.0	 600.0	 625.0	 0.0	 0.0	 1	 -30.0	 30.0;
	319	 320	 0.005	 0.04	 0.083	 500.0	 600.0	 625.0	 0.0	 0.0	 1	 -30.0	 30.0;
	319	 320	 0.005	 0.04	 0.083	 500.0	 600.0	 625.0	 0.0	 0.0	 1	 -30.0	 30.0;
	320	 323	 0.003	 0.022	 0.046	 500.0	 600.0	 625.0	 0.0	 0.0	 1	 -30.0	 30.0;
	320	 323	 0.003	 0.022	 0.046	 500.0	 600.0	 625.0	 0.0	 0.0	 1	 -30.0	 30.0;
	321	 322	 0.009	 0.068	 0.142	 500.0	 600.0	 625.0	 0.0	 0.0	 1	 -30.0	 30.0;
	325	 121	 0.012	 0.097	 0.203	 500.0	 600.0	 625.0	 0.0	 0.0	 1	 -30.0	 30.0;
	318	 223	 0.013	 0.104	 0.218	 500.0	 600.0	 625.0	 0.0	 0.0	 1	 -30.0	 30.0;
	323	 325	 0.0	 0.009	 0.0	 722.0	 893.0	 893.0	 0.0	 0.0	 1	 -30.0	 30.0;
];

% INFO    : === Translation Options ===
% INFO    : Load Model:                  from file ./nesta_case73_ieee_rts.dat.sol
% INFO    : Gen Active Capacity Model:   stat
% INFO    : Gen Reactive Capacity Model: al50ag
% INFO    : Gen Active Cost Model:       stat
% INFO    : 
% INFO    : === Load Replacement Notes ===
% INFO    : Bus 101	: Pd=108.0, Qd=22.0 -> Pd=207.49, Qd=22.00
% INFO    : Bus 102	: Pd=97.0, Qd=20.0 -> Pd=186.35, Qd=20.00
% INFO    : Bus 103	: Pd=180.0, Qd=37.0 -> Pd=345.81, Qd=37.00
% INFO    : Bus 104	: Pd=74.0, Qd=15.0 -> Pd=142.17, Qd=15.00
% INFO    : Bus 105	: Pd=71.0, Qd=14.0 -> Pd=136.40, Qd=14.00
% INFO    : Bus 106	: Pd=136.0, Qd=28.0 -> Pd=261.28, Qd=28.00
% INFO    : Bus 107	: Pd=125.0, Qd=25.0 -> Pd=240.15, Qd=25.00
% INFO    : Bus 108	: Pd=171.0, Qd=35.0 -> Pd=328.52, Qd=35.00
% INFO    : Bus 109	: Pd=175.0, Qd=36.0 -> Pd=336.20, Qd=36.00
% INFO    : Bus 110	: Pd=195.0, Qd=40.0 -> Pd=374.63, Qd=40.00
% INFO    : Bus 111	: Pd=0.0, Qd=0.0 -> Pd=0.00, Qd=0.00
% INFO    : Bus 112	: Pd=0.0, Qd=0.0 -> Pd=0.00, Qd=0.00
% INFO    : Bus 113	: Pd=265.0, Qd=54.0 -> Pd=509.11, Qd=54.00
% INFO    : Bus 114	: Pd=194.0, Qd=39.0 -> Pd=372.71, Qd=39.00
% INFO    : Bus 115	: Pd=317.0, Qd=64.0 -> Pd=609.01, Qd=64.00
% INFO    : Bus 116	: Pd=100.0, Qd=20.0 -> Pd=192.12, Qd=20.00
% INFO    : Bus 117	: Pd=0.0, Qd=0.0 -> Pd=0.00, Qd=0.00
% INFO    : Bus 118	: Pd=333.0, Qd=68.0 -> Pd=639.75, Qd=68.00
% INFO    : Bus 119	: Pd=181.0, Qd=37.0 -> Pd=347.73, Qd=37.00
% INFO    : Bus 120	: Pd=128.0, Qd=26.0 -> Pd=245.91, Qd=26.00
% INFO    : Bus 121	: Pd=0.0, Qd=0.0 -> Pd=0.00, Qd=0.00
% INFO    : Bus 122	: Pd=0.0, Qd=0.0 -> Pd=0.00, Qd=0.00
% INFO    : Bus 123	: Pd=0.0, Qd=0.0 -> Pd=0.00, Qd=0.00
% INFO    : Bus 124	: Pd=0.0, Qd=0.0 -> Pd=0.00, Qd=0.00
% INFO    : Bus 201	: Pd=108.0, Qd=22.0 -> Pd=207.49, Qd=22.00
% INFO    : Bus 202	: Pd=97.0, Qd=20.0 -> Pd=186.35, Qd=20.00
% INFO    : Bus 203	: Pd=180.0, Qd=37.0 -> Pd=345.81, Qd=37.00
% INFO    : Bus 204	: Pd=74.0, Qd=15.0 -> Pd=142.17, Qd=15.00
% INFO    : Bus 205	: Pd=71.0, Qd=14.0 -> Pd=136.40, Qd=14.00
% INFO    : Bus 206	: Pd=136.0, Qd=28.0 -> Pd=261.28, Qd=28.00
% INFO    : Bus 207	: Pd=125.0, Qd=25.0 -> Pd=240.15, Qd=25.00
% INFO    : Bus 208	: Pd=171.0, Qd=35.0 -> Pd=328.52, Qd=35.00
% INFO    : Bus 209	: Pd=175.0, Qd=36.0 -> Pd=336.20, Qd=36.00
% INFO    : Bus 210	: Pd=195.0, Qd=40.0 -> Pd=374.63, Qd=40.00
% INFO    : Bus 211	: Pd=0.0, Qd=0.0 -> Pd=0.00, Qd=0.00
% INFO    : Bus 212	: Pd=0.0, Qd=0.0 -> Pd=0.00, Qd=0.00
% INFO    : Bus 213	: Pd=265.0, Qd=54.0 -> Pd=509.11, Qd=54.00
% INFO    : Bus 214	: Pd=194.0, Qd=39.0 -> Pd=372.71, Qd=39.00
% INFO    : Bus 215	: Pd=317.0, Qd=64.0 -> Pd=609.01, Qd=64.00
% INFO    : Bus 216	: Pd=100.0, Qd=20.0 -> Pd=192.12, Qd=20.00
% INFO    : Bus 217	: Pd=0.0, Qd=0.0 -> Pd=0.00, Qd=0.00
% INFO    : Bus 218	: Pd=333.0, Qd=68.0 -> Pd=639.75, Qd=68.00
% INFO    : Bus 219	: Pd=181.0, Qd=37.0 -> Pd=347.73, Qd=37.00
% INFO    : Bus 220	: Pd=128.0, Qd=26.0 -> Pd=245.91, Qd=26.00
% INFO    : Bus 221	: Pd=0.0, Qd=0.0 -> Pd=0.00, Qd=0.00
% INFO    : Bus 222	: Pd=0.0, Qd=0.0 -> Pd=0.00, Qd=0.00
% INFO    : Bus 223	: Pd=0.0, Qd=0.0 -> Pd=0.00, Qd=0.00
% INFO    : Bus 224	: Pd=0.0, Qd=0.0 -> Pd=0.00, Qd=0.00
% INFO    : Bus 301	: Pd=108.0, Qd=22.0 -> Pd=207.49, Qd=22.00
% INFO    : Bus 302	: Pd=97.0, Qd=20.0 -> Pd=186.35, Qd=20.00
% INFO    : Bus 303	: Pd=180.0, Qd=37.0 -> Pd=345.81, Qd=37.00
% INFO    : Bus 304	: Pd=74.0, Qd=15.0 -> Pd=142.17, Qd=15.00
% INFO    : Bus 305	: Pd=71.0, Qd=14.0 -> Pd=136.40, Qd=14.00
% INFO    : Bus 306	: Pd=136.0, Qd=28.0 -> Pd=261.28, Qd=28.00
% INFO    : Bus 307	: Pd=125.0, Qd=25.0 -> Pd=240.15, Qd=25.00
% INFO    : Bus 308	: Pd=171.0, Qd=35.0 -> Pd=328.52, Qd=35.00
% INFO    : Bus 309	: Pd=175.0, Qd=36.0 -> Pd=336.20, Qd=36.00
% INFO    : Bus 310	: Pd=195.0, Qd=40.0 -> Pd=374.63, Qd=40.00
% INFO    : Bus 311	: Pd=0.0, Qd=0.0 -> Pd=0.00, Qd=0.00
% INFO    : Bus 312	: Pd=0.0, Qd=0.0 -> Pd=0.00, Qd=0.00
% INFO    : Bus 313	: Pd=265.0, Qd=54.0 -> Pd=509.11, Qd=54.00
% INFO    : Bus 314	: Pd=194.0, Qd=39.0 -> Pd=372.71, Qd=39.00
% INFO    : Bus 315	: Pd=317.0, Qd=64.0 -> Pd=609.01, Qd=64.00
% INFO    : Bus 316	: Pd=100.0, Qd=20.0 -> Pd=192.12, Qd=20.00
% INFO    : Bus 317	: Pd=0.0, Qd=0.0 -> Pd=0.00, Qd=0.00
% INFO    : Bus 318	: Pd=333.0, Qd=68.0 -> Pd=639.75, Qd=68.00
% INFO    : Bus 319	: Pd=181.0, Qd=37.0 -> Pd=347.73, Qd=37.00
% INFO    : Bus 320	: Pd=128.0, Qd=26.0 -> Pd=245.91, Qd=26.00
% INFO    : Bus 321	: Pd=0.0, Qd=0.0 -> Pd=0.00, Qd=0.00
% INFO    : Bus 322	: Pd=0.0, Qd=0.0 -> Pd=0.00, Qd=0.00
% INFO    : Bus 323	: Pd=0.0, Qd=0.0 -> Pd=0.00, Qd=0.00
% INFO    : Bus 324	: Pd=0.0, Qd=0.0 -> Pd=0.00, Qd=0.00
% INFO    : Bus 325	: Pd=0.0, Qd=0.0 -> Pd=0.00, Qd=0.00
% INFO    : 
% INFO    : === Generator Setpoint Replacement Notes ===
% INFO    : Gen at bus 101	: Pg=16.0, Qg=4.88 -> Pg=72.0, Qg=2.0
% INFO    : Gen at bus 101	: Pg=16.0, Qg=4.88 -> Pg=72.0, Qg=2.0
% INFO    : Gen at bus 101	: Pg=76.0, Qg=-1.077 -> Pg=72.0, Qg=2.0
% INFO    : Gen at bus 101	: Pg=76.0, Qg=-1.077 -> Pg=72.0, Qg=2.0
% INFO    : Gen at bus 102	: Pg=16.0, Qg=4.82 -> Pg=158.0, Qg=29.0
% INFO    : Gen at bus 102	: Pg=16.0, Qg=4.82 -> Pg=158.0, Qg=29.0
% INFO    : Gen at bus 102	: Pg=76.0, Qg=-2.741 -> Pg=157.0, Qg=29.0
% INFO    : Gen at bus 102	: Pg=76.0, Qg=-2.741 -> Pg=157.0, Qg=29.0
% INFO    : Gen at bus 107	: Pg=66.816, Qg=20.616 -> Pg=128.0, Qg=54.0
% INFO    : Gen at bus 107	: Pg=66.816, Qg=20.616 -> Pg=128.0, Qg=54.0
% INFO    : Gen at bus 107	: Pg=66.816, Qg=20.616 -> Pg=128.0, Qg=54.0
% INFO    : Gen at bus 113	: Pg=69.0, Qg=36.655 -> Pg=442.0, Qg=103.0
% INFO    : Gen at bus 113	: Pg=69.0, Qg=36.655 -> Pg=442.0, Qg=103.0
% INFO    : Gen at bus 113	: Pg=69.0, Qg=36.655 -> Pg=442.0, Qg=103.0
% INFO    : Gen at bus 114	: Pg=0.0, Qg=106.688 -> Pg=0.0, Qg=245.0
% INFO    : Gen at bus 115	: Pg=2.4, Qg=6.0 -> Pg=109.0, Qg=92.0
% INFO    : Gen at bus 115	: Pg=2.4, Qg=6.0 -> Pg=109.0, Qg=92.0
% INFO    : Gen at bus 115	: Pg=2.4, Qg=6.0 -> Pg=109.0, Qg=92.0
% INFO    : Gen at bus 115	: Pg=2.4, Qg=6.0 -> Pg=109.0, Qg=92.0
% INFO    : Gen at bus 115	: Pg=2.4, Qg=6.0 -> Pg=109.0, Qg=92.0
% INFO    : Gen at bus 115	: Pg=155.0, Qg=80.0 -> Pg=160.0, Qg=92.0
% INFO    : Gen at bus 116	: Pg=155.0, Qg=80.0 -> Pg=588.0, Qg=-75.0
% INFO    : Gen at bus 118	: Pg=400.0, Qg=66.602 -> Pg=286.0, Qg=42.0
% INFO    : Gen at bus 121	: Pg=400.0, Qg=-25.009 -> Pg=218.0, Qg=-180.0
% INFO    : Gen at bus 122	: Pg=50.0, Qg=-6.699 -> Pg=81.0, Qg=-7.0
% INFO    : Gen at bus 122	: Pg=50.0, Qg=-6.699 -> Pg=81.0, Qg=-7.0
% INFO    : Gen at bus 122	: Pg=50.0, Qg=-6.699 -> Pg=81.0, Qg=-7.0
% INFO    : Gen at bus 122	: Pg=50.0, Qg=-6.699 -> Pg=81.0, Qg=-7.0
% INFO    : Gen at bus 122	: Pg=50.0, Qg=-6.699 -> Pg=81.0, Qg=-7.0
% INFO    : Gen at bus 122	: Pg=50.0, Qg=-6.699 -> Pg=81.0, Qg=-7.0
% INFO    : Gen at bus 123	: Pg=155.0, Qg=-3.222 -> Pg=314.0, Qg=22.0
% INFO    : Gen at bus 123	: Pg=155.0, Qg=-3.222 -> Pg=314.0, Qg=22.0
% INFO    : Gen at bus 123	: Pg=350.0, Qg=31.24 -> Pg=399.0, Qg=22.0
% INFO    : Gen at bus 201	: Pg=16.0, Qg=4.824 -> Pg=69.0, Qg=1.0
% INFO    : Gen at bus 201	: Pg=16.0, Qg=4.824 -> Pg=69.0, Qg=1.0
% INFO    : Gen at bus 201	: Pg=76.0, Qg=-2.64 -> Pg=68.0, Qg=1.0
% INFO    : Gen at bus 201	: Pg=76.0, Qg=-2.64 -> Pg=68.0, Qg=1.0
% INFO    : Gen at bus 202	: Pg=16.0, Qg=4.811 -> Pg=157.0, Qg=29.0
% INFO    : Gen at bus 202	: Pg=16.0, Qg=4.811 -> Pg=157.0, Qg=29.0
% INFO    : Gen at bus 202	: Pg=76.0, Qg=-2.989 -> Pg=156.0, Qg=29.0
% INFO    : Gen at bus 202	: Pg=76.0, Qg=-2.989 -> Pg=156.0, Qg=29.0
% INFO    : Gen at bus 207	: Pg=71.574, Qg=16.584 -> Pg=126.0, Qg=41.0
% INFO    : Gen at bus 207	: Pg=71.574, Qg=16.584 -> Pg=126.0, Qg=41.0
% INFO    : Gen at bus 207	: Pg=71.574, Qg=16.584 -> Pg=126.0, Qg=41.0
% INFO    : Gen at bus 213	: Pg=90.186, Qg=35.467 -> Pg=385.0, Qg=105.0
% INFO    : Gen at bus 213	: Pg=90.186, Qg=35.467 -> Pg=385.0, Qg=105.0
% INFO    : Gen at bus 213	: Pg=90.186, Qg=35.467 -> Pg=385.0, Qg=105.0
% INFO    : Gen at bus 214	: Pg=0.0, Qg=105.2 -> Pg=0.0, Qg=240.0
% INFO    : Gen at bus 215	: Pg=2.4, Qg=6.0 -> Pg=128.0, Qg=68.0
% INFO    : Gen at bus 215	: Pg=2.4, Qg=6.0 -> Pg=128.0, Qg=68.0
% INFO    : Gen at bus 215	: Pg=2.4, Qg=6.0 -> Pg=128.0, Qg=68.0
% INFO    : Gen at bus 215	: Pg=2.4, Qg=6.0 -> Pg=128.0, Qg=68.0
% INFO    : Gen at bus 215	: Pg=2.4, Qg=6.0 -> Pg=128.0, Qg=68.0
% INFO    : Gen at bus 215	: Pg=155.0, Qg=80.0 -> Pg=180.0, Qg=68.0
% INFO    : Gen at bus 216	: Pg=155.0, Qg=80.0 -> Pg=364.0, Qg=-13.0
% INFO    : Gen at bus 218	: Pg=400.0, Qg=61.795 -> Pg=264.0, Qg=52.0
% INFO    : Gen at bus 221	: Pg=400.0, Qg=-9.833 -> Pg=213.0, Qg=-93.0
% INFO    : Gen at bus 222	: Pg=50.0, Qg=-6.797 -> Pg=79.0, Qg=-7.0
% INFO    : Gen at bus 222	: Pg=50.0, Qg=-6.797 -> Pg=79.0, Qg=-7.0
% INFO    : Gen at bus 222	: Pg=50.0, Qg=-6.797 -> Pg=79.0, Qg=-7.0
% INFO    : Gen at bus 222	: Pg=50.0, Qg=-6.797 -> Pg=79.0, Qg=-7.0
% INFO    : Gen at bus 222	: Pg=50.0, Qg=-6.797 -> Pg=79.0, Qg=-7.0
% INFO    : Gen at bus 222	: Pg=50.0, Qg=-6.797 -> Pg=79.0, Qg=-7.0
% INFO    : Gen at bus 223	: Pg=155.0, Qg=0.031 -> Pg=246.0, Qg=21.0
% INFO    : Gen at bus 223	: Pg=155.0, Qg=0.031 -> Pg=246.0, Qg=21.0
% INFO    : Gen at bus 223	: Pg=350.0, Qg=36.398 -> Pg=331.0, Qg=21.0
% INFO    : Gen at bus 301	: Pg=16.0, Qg=4.902 -> Pg=72.0, Qg=2.0
% INFO    : Gen at bus 301	: Pg=16.0, Qg=4.902 -> Pg=72.0, Qg=2.0
% INFO    : Gen at bus 301	: Pg=76.0, Qg=-0.426 -> Pg=72.0, Qg=2.0
% INFO    : Gen at bus 301	: Pg=76.0, Qg=-0.426 -> Pg=72.0, Qg=2.0
% INFO    : Gen at bus 302	: Pg=16.0, Qg=4.833 -> Pg=158.0, Qg=29.0
% INFO    : Gen at bus 302	: Pg=16.0, Qg=4.833 -> Pg=158.0, Qg=29.0
% INFO    : Gen at bus 302	: Pg=76.0, Qg=-2.394 -> Pg=157.0, Qg=29.0
% INFO    : Gen at bus 302	: Pg=76.0, Qg=-2.394 -> Pg=157.0, Qg=29.0
% INFO    : Gen at bus 307	: Pg=70.297, Qg=16.714 -> Pg=127.0, Qg=41.0
% INFO    : Gen at bus 307	: Pg=70.297, Qg=16.714 -> Pg=127.0, Qg=41.0
% INFO    : Gen at bus 307	: Pg=70.297, Qg=16.714 -> Pg=127.0, Qg=41.0
% INFO    : Gen at bus 313	: Pg=76.947, Qg=37.941 -> Pg=399.0, Qg=111.0
% INFO    : Gen at bus 313	: Pg=76.947, Qg=37.941 -> Pg=399.0, Qg=111.0
% INFO    : Gen at bus 313	: Pg=76.947, Qg=37.941 -> Pg=399.0, Qg=111.0
% INFO    : Gen at bus 314	: Pg=0.0, Qg=117.87 -> Pg=0.0, Qg=248.0
% INFO    : Gen at bus 315	: Pg=2.4, Qg=6.0 -> Pg=104.0, Qg=92.0
% INFO    : Gen at bus 315	: Pg=2.4, Qg=6.0 -> Pg=104.0, Qg=92.0
% INFO    : Gen at bus 315	: Pg=2.4, Qg=6.0 -> Pg=104.0, Qg=92.0
% INFO    : Gen at bus 315	: Pg=2.4, Qg=6.0 -> Pg=104.0, Qg=92.0
% INFO    : Gen at bus 315	: Pg=2.4, Qg=6.0 -> Pg=104.0, Qg=92.0
% INFO    : Gen at bus 315	: Pg=155.0, Qg=80.0 -> Pg=156.0, Qg=92.0
% INFO    : Gen at bus 316	: Pg=155.0, Qg=80.0 -> Pg=517.0, Qg=-61.0
% INFO    : Gen at bus 318	: Pg=400.0, Qg=57.471 -> Pg=261.0, Qg=11.0
% INFO    : Gen at bus 321	: Pg=400.0, Qg=-13.198 -> Pg=206.0, Qg=-143.0
% INFO    : Gen at bus 322	: Pg=50.0, Qg=-6.683 -> Pg=79.0, Qg=-7.0
% INFO    : Gen at bus 322	: Pg=50.0, Qg=-6.683 -> Pg=79.0, Qg=-7.0
% INFO    : Gen at bus 322	: Pg=50.0, Qg=-6.683 -> Pg=79.0, Qg=-7.0
% INFO    : Gen at bus 322	: Pg=50.0, Qg=-6.683 -> Pg=79.0, Qg=-7.0
% INFO    : Gen at bus 322	: Pg=50.0, Qg=-6.683 -> Pg=79.0, Qg=-7.0
% INFO    : Gen at bus 322	: Pg=50.0, Qg=-6.683 -> Pg=79.0, Qg=-7.0
% INFO    : Gen at bus 323	: Pg=155.0, Qg=1.047 -> Pg=261.0, Qg=20.0
% INFO    : Gen at bus 323	: Pg=155.0, Qg=1.047 -> Pg=261.0, Qg=20.0
% INFO    : Gen at bus 323	: Pg=350.0, Qg=38.057 -> Pg=347.0, Qg=20.0
% INFO    : 
% INFO    : === Generator Reactive Capacity Atleast Setpoint Value Notes ===
% INFO    : Gen at bus 101	: Qg 2.0, Qmin 0.0, Qmax 10.0 -> Qmin -2.4, Qmax 10.0
% INFO    : Gen at bus 101	: Qg 2.0, Qmin 0.0, Qmax 10.0 -> Qmin -2.4, Qmax 10.0
% INFO    : Gen at bus 102	: Qg 29.0, Qmin 0.0, Qmax 10.0 -> Qmin -34.8, Qmax 34.8
% INFO    : Gen at bus 102	: Qg 29.0, Qmin 0.0, Qmax 10.0 -> Qmin -34.8, Qmax 34.8
% INFO    : Gen at bus 102	: Qg 29.0, Qmin -25.0, Qmax 30.0 -> Qmin -34.8, Qmax 30.0
% INFO    : Gen at bus 102	: Qg 29.0, Qmin -25.0, Qmax 30.0 -> Qmin -34.8, Qmax 30.0
% INFO    : Gen at bus 107	: Qg 54.0, Qmin 0.0, Qmax 60.0 -> Qmin -64.8, Qmax 60.0
% INFO    : Gen at bus 107	: Qg 54.0, Qmin 0.0, Qmax 60.0 -> Qmin -64.8, Qmax 60.0
% INFO    : Gen at bus 107	: Qg 54.0, Qmin 0.0, Qmax 60.0 -> Qmin -64.8, Qmax 60.0
% INFO    : Gen at bus 113	: Qg 103.0, Qmin 0.0, Qmax 80.0 -> Qmin -123.6, Qmax 123.6
% INFO    : Gen at bus 113	: Qg 103.0, Qmin 0.0, Qmax 80.0 -> Qmin -123.6, Qmax 123.6
% INFO    : Gen at bus 113	: Qg 103.0, Qmin 0.0, Qmax 80.0 -> Qmin -123.6, Qmax 123.6
% INFO    : Gen at bus 114	: Qg 245.0, Qmin -50.0, Qmax 200.0 -> Qmin -294.0, Qmax 294.0
% INFO    : Gen at bus 115	: Qg 92.0, Qmin 0.0, Qmax 6.0 -> Qmin -110.4, Qmax 110.4
% INFO    : Gen at bus 115	: Qg 92.0, Qmin 0.0, Qmax 6.0 -> Qmin -110.4, Qmax 110.4
% INFO    : Gen at bus 115	: Qg 92.0, Qmin 0.0, Qmax 6.0 -> Qmin -110.4, Qmax 110.4
% INFO    : Gen at bus 115	: Qg 92.0, Qmin 0.0, Qmax 6.0 -> Qmin -110.4, Qmax 110.4
% INFO    : Gen at bus 115	: Qg 92.0, Qmin 0.0, Qmax 6.0 -> Qmin -110.4, Qmax 110.4
% INFO    : Gen at bus 115	: Qg 92.0, Qmin -50.0, Qmax 80.0 -> Qmin -110.4, Qmax 110.4
% INFO    : Gen at bus 116	: Qg -75.0, Qmin -50.0, Qmax 80.0 -> Qmin -90.0, Qmax 80.0
% INFO    : Gen at bus 121	: Qg -180.0, Qmin -50.0, Qmax 200.0 -> Qmin -216.0, Qmax 200.0
% INFO    : Gen at bus 201	: Qg 1.0, Qmin 0.0, Qmax 10.0 -> Qmin -1.2, Qmax 10.0
% INFO    : Gen at bus 201	: Qg 1.0, Qmin 0.0, Qmax 10.0 -> Qmin -1.2, Qmax 10.0
% INFO    : Gen at bus 202	: Qg 29.0, Qmin 0.0, Qmax 10.0 -> Qmin -34.8, Qmax 34.8
% INFO    : Gen at bus 202	: Qg 29.0, Qmin 0.0, Qmax 10.0 -> Qmin -34.8, Qmax 34.8
% INFO    : Gen at bus 202	: Qg 29.0, Qmin -25.0, Qmax 30.0 -> Qmin -34.8, Qmax 30.0
% INFO    : Gen at bus 202	: Qg 29.0, Qmin -25.0, Qmax 30.0 -> Qmin -34.8, Qmax 30.0
% INFO    : Gen at bus 207	: Qg 41.0, Qmin 0.0, Qmax 60.0 -> Qmin -49.2, Qmax 60.0
% INFO    : Gen at bus 207	: Qg 41.0, Qmin 0.0, Qmax 60.0 -> Qmin -49.2, Qmax 60.0
% INFO    : Gen at bus 207	: Qg 41.0, Qmin 0.0, Qmax 60.0 -> Qmin -49.2, Qmax 60.0
% INFO    : Gen at bus 213	: Qg 105.0, Qmin 0.0, Qmax 80.0 -> Qmin -126.0, Qmax 126.0
% INFO    : Gen at bus 213	: Qg 105.0, Qmin 0.0, Qmax 80.0 -> Qmin -126.0, Qmax 126.0
% INFO    : Gen at bus 213	: Qg 105.0, Qmin 0.0, Qmax 80.0 -> Qmin -126.0, Qmax 126.0
% INFO    : Gen at bus 214	: Qg 240.0, Qmin -50.0, Qmax 200.0 -> Qmin -288.0, Qmax 288.0
% INFO    : Gen at bus 215	: Qg 68.0, Qmin 0.0, Qmax 6.0 -> Qmin -81.6, Qmax 81.6
% INFO    : Gen at bus 215	: Qg 68.0, Qmin 0.0, Qmax 6.0 -> Qmin -81.6, Qmax 81.6
% INFO    : Gen at bus 215	: Qg 68.0, Qmin 0.0, Qmax 6.0 -> Qmin -81.6, Qmax 81.6
% INFO    : Gen at bus 215	: Qg 68.0, Qmin 0.0, Qmax 6.0 -> Qmin -81.6, Qmax 81.6
% INFO    : Gen at bus 215	: Qg 68.0, Qmin 0.0, Qmax 6.0 -> Qmin -81.6, Qmax 81.6
% INFO    : Gen at bus 215	: Qg 68.0, Qmin -50.0, Qmax 80.0 -> Qmin -81.6, Qmax 80.0
% INFO    : Gen at bus 218	: Qg 52.0, Qmin -50.0, Qmax 200.0 -> Qmin -62.4, Qmax 200.0
% INFO    : Gen at bus 221	: Qg -93.0, Qmin -50.0, Qmax 200.0 -> Qmin -111.6, Qmax 200.0
% INFO    : Gen at bus 301	: Qg 2.0, Qmin 0.0, Qmax 10.0 -> Qmin -2.4, Qmax 10.0
% INFO    : Gen at bus 301	: Qg 2.0, Qmin 0.0, Qmax 10.0 -> Qmin -2.4, Qmax 10.0
% INFO    : Gen at bus 302	: Qg 29.0, Qmin 0.0, Qmax 10.0 -> Qmin -34.8, Qmax 34.8
% INFO    : Gen at bus 302	: Qg 29.0, Qmin 0.0, Qmax 10.0 -> Qmin -34.8, Qmax 34.8
% INFO    : Gen at bus 302	: Qg 29.0, Qmin -25.0, Qmax 30.0 -> Qmin -34.8, Qmax 30.0
% INFO    : Gen at bus 302	: Qg 29.0, Qmin -25.0, Qmax 30.0 -> Qmin -34.8, Qmax 30.0
% INFO    : Gen at bus 307	: Qg 41.0, Qmin 0.0, Qmax 60.0 -> Qmin -49.2, Qmax 60.0
% INFO    : Gen at bus 307	: Qg 41.0, Qmin 0.0, Qmax 60.0 -> Qmin -49.2, Qmax 60.0
% INFO    : Gen at bus 307	: Qg 41.0, Qmin 0.0, Qmax 60.0 -> Qmin -49.2, Qmax 60.0
% INFO    : Gen at bus 313	: Qg 111.0, Qmin 0.0, Qmax 80.0 -> Qmin -133.2, Qmax 133.2
% INFO    : Gen at bus 313	: Qg 111.0, Qmin 0.0, Qmax 80.0 -> Qmin -133.2, Qmax 133.2
% INFO    : Gen at bus 313	: Qg 111.0, Qmin 0.0, Qmax 80.0 -> Qmin -133.2, Qmax 133.2
% INFO    : Gen at bus 314	: Qg 248.0, Qmin -50.0, Qmax 200.0 -> Qmin -297.6, Qmax 297.6
% INFO    : Gen at bus 315	: Qg 92.0, Qmin 0.0, Qmax 6.0 -> Qmin -110.4, Qmax 110.4
% INFO    : Gen at bus 315	: Qg 92.0, Qmin 0.0, Qmax 6.0 -> Qmin -110.4, Qmax 110.4
% INFO    : Gen at bus 315	: Qg 92.0, Qmin 0.0, Qmax 6.0 -> Qmin -110.4, Qmax 110.4
% INFO    : Gen at bus 315	: Qg 92.0, Qmin 0.0, Qmax 6.0 -> Qmin -110.4, Qmax 110.4
% INFO    : Gen at bus 315	: Qg 92.0, Qmin 0.0, Qmax 6.0 -> Qmin -110.4, Qmax 110.4
% INFO    : Gen at bus 315	: Qg 92.0, Qmin -50.0, Qmax 80.0 -> Qmin -110.4, Qmax 110.4
% INFO    : Gen at bus 316	: Qg -61.0, Qmin -50.0, Qmax 80.0 -> Qmin -73.2, Qmax 80.0
% INFO    : Gen at bus 321	: Qg -143.0, Qmin -50.0, Qmax 200.0 -> Qmin -171.6, Qmax 200.0
% INFO    : 
% INFO    : === Generator Classification Notes ===
% INFO    : PEL    17  -    12.02
% INFO    : SYNC   3   -     0.00
% INFO    : COW    7   -     8.52
% INFO    : NG     72  -    79.47
% INFO    : 
% INFO    : === Generator Active Capacity Stat Model Notes ===
% INFO    : Gen at bus 101 - PEL	: Pg=72.0, Pmax=20.0 -> Pmax=101   samples: 1
% INFO    : Gen at bus 101 - NG	: Pg=72.0, Pmax=20.0 -> Pmax=207   samples: 1
% INFO    : Gen at bus 101 - NG	: Pg=72.0, Pmax=76.0 -> Pmax=200   samples: 2
% INFO    : Gen at bus 101 - NG	: Pg=72.0, Pmax=76.0 -> Pmax=197   samples: 1
% INFO    : Gen at bus 102 - PEL	: Pg=158.0, Pmax=20.0 -> Pmax=213   samples: 33
% INFO    : Gen at bus 102 - NG	: Pg=158.0, Pmax=20.0 -> Pmax=205   samples: 9
% INFO    : Gen at bus 102 - NG	: Pg=157.0, Pmax=76.0 -> Pmax=370   samples: 1
% INFO    : Gen at bus 102 - PEL	: Pg=157.0, Pmax=76.0 -> Pmax=172   samples: 18
% INFO    : Gen at bus 107 - NG	: Pg=128.0, Pmax=100.0 -> Pmax=336   samples: 1
% INFO    : Gen at bus 107 - NG	: Pg=128.0, Pmax=100.0 -> Pmax=318   samples: 9
% INFO    : Gen at bus 107 - NG	: Pg=128.0, Pmax=100.0 -> Pmax=137   samples: 2
% INFO    : Gen at bus 113 - NG	: Pg=442.0, Pmax=197.0 -> Pmax=660   samples: 19
% INFO    : Gen at bus 113 - NG	: Pg=442.0, Pmax=197.0 -> Pmax=510   samples: 30
% INFO    : Gen at bus 113 - NG	: Pg=442.0, Pmax=197.0 -> Pmax=519   samples: 84
% INFO    : Gen at bus 114 - SYNC	: Pg=0.0, Pmax=0.0 -> Pmax=0   samples: 0
% INFO    : Gen at bus 115 - PEL	: Pg=109.0, Pmax=12.0 -> Pmax=272   samples: 3
% INFO    : Gen at bus 115 - NG	: Pg=109.0, Pmax=12.0 -> Pmax=313   samples: 2
% INFO    : Gen at bus 115 - NG	: Pg=109.0, Pmax=12.0 -> Pmax=170   samples: 3
% INFO    : Gen at bus 115 - PEL	: Pg=109.0, Pmax=12.0 -> Pmax=175   samples: 1
% INFO    : Gen at bus 115 - PEL	: Pg=109.0, Pmax=12.0 -> Pmax=175   samples: 8
% INFO    : Gen at bus 115 - COW	: Pg=160.0, Pmax=155.0 -> Pmax=276   samples: 1
% INFO    : Gen at bus 116 - NG	: Pg=588.0, Pmax=155.0 -> Pmax=618   samples: 57
% INFO    : Gen at bus 118 - NG	: Pg=286.0, Pmax=400.0 -> Pmax=329   samples: 16
% INFO    : Gen at bus 121 - NG	: Pg=218.0, Pmax=400.0 -> Pmax=277   samples: 3
% INFO    : Gen at bus 122 - NG	: Pg=81.0, Pmax=50.0 -> Pmax=102   samples: 4
% INFO    : Gen at bus 122 - NG	: Pg=81.0, Pmax=50.0 -> Pmax=102   samples: 2
% INFO    : Gen at bus 122 - NG	: Pg=81.0, Pmax=50.0 -> Pmax=160   samples: 2
% INFO    : Gen at bus 122 - NG	: Pg=81.0, Pmax=50.0 -> Pmax=186   samples: 1
% INFO    : Gen at bus 122 - NG	: Pg=81.0, Pmax=50.0 -> Pmax=85   samples: 5
% INFO    : Gen at bus 122 - NG	: Pg=81.0, Pmax=50.0 -> Pmax=219   samples: 1
% INFO    : Gen at bus 123 - NG	: Pg=314.0, Pmax=155.0 -> Pmax=353   samples: 5
% INFO    : Gen at bus 123 - NG	: Pg=314.0, Pmax=155.0 -> Pmax=335   samples: 24
% INFO    : Gen at bus 123 - NG	: Pg=399.0, Pmax=350.0 -> Pmax=432   samples: 40
% INFO    : Gen at bus 201 - PEL	: Pg=69.0, Pmax=20.0 -> Pmax=121   samples: 5
% INFO    : Gen at bus 201 - NG	: Pg=69.0, Pmax=20.0 -> Pmax=112   samples: 1
% INFO    : Gen at bus 201 - COW	: Pg=68.0, Pmax=76.0 -> Pmax=329   samples: 2
% INFO    : Gen at bus 201 - NG	: Pg=68.0, Pmax=76.0 -> Pmax=186   samples: 5
% INFO    : Gen at bus 202 - PEL	: Pg=157.0, Pmax=20.0 -> Pmax=179   samples: 14
% INFO    : Gen at bus 202 - NG	: Pg=157.0, Pmax=20.0 -> Pmax=293   samples: 1
% INFO    : Gen at bus 202 - PEL	: Pg=156.0, Pmax=76.0 -> Pmax=175   samples: 5
% INFO    : Gen at bus 202 - PEL	: Pg=156.0, Pmax=76.0 -> Pmax=196   samples: 77
% INFO    : Gen at bus 207 - NG	: Pg=126.0, Pmax=100.0 -> Pmax=301   samples: 3
% INFO    : Gen at bus 207 - NG	: Pg=126.0, Pmax=100.0 -> Pmax=136   samples: 3
% INFO    : Gen at bus 207 - NG	: Pg=126.0, Pmax=100.0 -> Pmax=144   samples: 10
% WARNING : Failed to find a generator capacity within (385.0-1925.0) after 100 samples, using percent increase model
% INFO    : Gen at bus 213 - NG	: Pg=385.0, Pmax=197.0 -> Pmax=434   samples: 100
% INFO    : Gen at bus 213 - NG	: Pg=385.0, Pmax=197.0 -> Pmax=551   samples: 42
% INFO    : Gen at bus 213 - NG	: Pg=385.0, Pmax=197.0 -> Pmax=386   samples: 37
% INFO    : Gen at bus 214 - SYNC	: Pg=0.0, Pmax=0.0 -> Pmax=0   samples: 0
% INFO    : Gen at bus 215 - PEL	: Pg=128.0, Pmax=12.0 -> Pmax=142   samples: 11
% INFO    : Gen at bus 215 - NG	: Pg=128.0, Pmax=12.0 -> Pmax=167   samples: 1
% INFO    : Gen at bus 215 - NG	: Pg=128.0, Pmax=12.0 -> Pmax=139   samples: 1
% INFO    : Gen at bus 215 - NG	: Pg=128.0, Pmax=12.0 -> Pmax=186   samples: 3
% INFO    : Gen at bus 215 - NG	: Pg=128.0, Pmax=12.0 -> Pmax=160   samples: 2
% INFO    : Gen at bus 215 - NG	: Pg=180.0, Pmax=155.0 -> Pmax=246   samples: 19
% INFO    : Gen at bus 216 - NG	: Pg=364.0, Pmax=155.0 -> Pmax=477   samples: 5
% INFO    : Gen at bus 218 - NG	: Pg=264.0, Pmax=400.0 -> Pmax=308   samples: 65
% INFO    : Gen at bus 221 - NG	: Pg=213.0, Pmax=400.0 -> Pmax=235   samples: 9
% INFO    : Gen at bus 222 - NG	: Pg=79.0, Pmax=50.0 -> Pmax=189   samples: 1
% INFO    : Gen at bus 222 - NG	: Pg=79.0, Pmax=50.0 -> Pmax=101   samples: 7
% INFO    : Gen at bus 222 - NG	: Pg=79.0, Pmax=50.0 -> Pmax=111   samples: 2
% INFO    : Gen at bus 222 - NG	: Pg=79.0, Pmax=50.0 -> Pmax=177   samples: 1
% INFO    : Gen at bus 222 - NG	: Pg=79.0, Pmax=50.0 -> Pmax=79   samples: 4
% INFO    : Gen at bus 222 - NG	: Pg=79.0, Pmax=50.0 -> Pmax=84   samples: 3
% INFO    : Gen at bus 223 - NG	: Pg=246.0, Pmax=155.0 -> Pmax=293   samples: 2
% INFO    : Gen at bus 223 - NG	: Pg=246.0, Pmax=155.0 -> Pmax=246   samples: 5
% INFO    : Gen at bus 223 - NG	: Pg=331.0, Pmax=350.0 -> Pmax=355   samples: 16
% INFO    : Gen at bus 301 - PEL	: Pg=72.0, Pmax=20.0 -> Pmax=90   samples: 9
% INFO    : Gen at bus 301 - PEL	: Pg=72.0, Pmax=20.0 -> Pmax=74   samples: 10
% INFO    : Gen at bus 301 - NG	: Pg=72.0, Pmax=76.0 -> Pmax=83   samples: 1
% INFO    : Gen at bus 301 - NG	: Pg=72.0, Pmax=76.0 -> Pmax=75   samples: 3
% INFO    : Gen at bus 302 - COW	: Pg=158.0, Pmax=20.0 -> Pmax=163   samples: 1
% INFO    : Gen at bus 302 - PEL	: Pg=158.0, Pmax=20.0 -> Pmax=196   samples: 89
% INFO    : Gen at bus 302 - NG	: Pg=157.0, Pmax=76.0 -> Pmax=234   samples: 2
% INFO    : Gen at bus 302 - PEL	: Pg=157.0, Pmax=76.0 -> Pmax=243   samples: 21
% INFO    : Gen at bus 307 - NG	: Pg=127.0, Pmax=100.0 -> Pmax=144   samples: 3
% INFO    : Gen at bus 307 - NG	: Pg=127.0, Pmax=100.0 -> Pmax=225   samples: 1
% INFO    : Gen at bus 307 - NG	: Pg=127.0, Pmax=100.0 -> Pmax=363   samples: 1
% INFO    : Gen at bus 313 - NG	: Pg=399.0, Pmax=197.0 -> Pmax=577   samples: 4
% INFO    : Gen at bus 313 - NG	: Pg=399.0, Pmax=197.0 -> Pmax=408   samples: 35
% INFO    : Gen at bus 313 - NG	: Pg=399.0, Pmax=197.0 -> Pmax=509   samples: 14
% INFO    : Gen at bus 314 - SYNC	: Pg=0.0, Pmax=0.0 -> Pmax=0   samples: 0
% INFO    : Gen at bus 315 - NG	: Pg=104.0, Pmax=12.0 -> Pmax=110   samples: 4
% INFO    : Gen at bus 315 - COW	: Pg=104.0, Pmax=12.0 -> Pmax=294   samples: 1
% INFO    : Gen at bus 315 - NG	: Pg=104.0, Pmax=12.0 -> Pmax=150   samples: 3
% INFO    : Gen at bus 315 - PEL	: Pg=104.0, Pmax=12.0 -> Pmax=148   samples: 1
% INFO    : Gen at bus 315 - NG	: Pg=104.0, Pmax=12.0 -> Pmax=137   samples: 1
% INFO    : Gen at bus 315 - NG	: Pg=156.0, Pmax=155.0 -> Pmax=247   samples: 1
...